/*---------------------------------------------------------------------------*\
| =========                 |                                                 |
| \\      /  F ield         | OpenFOAM: The Open Source CFD Toolbox           |
|  \\    /   O peration     | Version:  v1906                                 |
|   \\  /    A nd           | Web:      www.OpenFOAM.com                      |
|    \\/     M anipulation  |                                                 |
\*---------------------------------------------------------------------------*/
Build  : v1906 OPENFOAM=1906
Arch   : "LSB;label=32;scalar=64"
Exec   : pisoFoam -parallel
Date   : Aug 26 2019
Time   : 10:54:57
Host   : DESKTOP-9S60IA4
PID    : 3527
I/O    : uncollated
Case   : /home/theodore_ong/GitHub_software/thin_pipeflow_snappyHexMesh/refined_pisoFoam_snappyPipe
nProcs : 4
Hosts  :
(
    (DESKTOP-9S60IA4 4)
)
Pstream initialized with:
    floatTransfer      : 0
    nProcsSimpleSum    : 0
    commsType          : nonBlocking
    polling iterations : 0
trapFpe: Floating point exception trapping enabled (FOAM_SIGFPE).
fileModificationChecking : Monitoring run-time modified files using timeStampMaster (fileModificationSkew 10)
allowSystemOperations : Allowing user-supplied system call operations

// * * * * * * * * * * * * * * * * * * * * * * * * * * * * * * * * * * * * * //
Create time

Create mesh for time = 0


PISO: Operating solver in PISO mode

Reading field p

Reading field U

Reading/calculating face flux field phi

Selecting incompressible transport model Newtonian
Selecting turbulence model type RAS
Selecting RAS turbulence model kEpsilon
RAS
{
    RASModel        kEpsilon;
    turbulence      on;
    printCoeffs     on;
    Cmu             0.09;
    C1              1.44;
    C2              1.92;
    C3              0;
    sigmak          1;
    sigmaEps        1.3;
}

No MRF models present

No finite volume options present

Starting time loop

Time = 0.025

Courant Number mean: 0.0377384 max: 0.306184
smoothSolver:  Solving for Ux, Initial residual = 1, Final residual = 8.87812e-07, No Iterations 3
smoothSolver:  Solving for Uy, Initial residual = 1, Final residual = 8.87817e-07, No Iterations 3
smoothSolver:  Solving for Uz, Initial residual = 1, Final residual = 5.91418e-06, No Iterations 2
DICPCG:  Solving for p, Initial residual = 1, Final residual = 0.0472516, No Iterations 465
time step continuity errors : sum local = 5.15395e-08, global = -1.01439e-10, cumulative = -1.01439e-10
DICPCG:  Solving for p, Initial residual = 0.000274073, Final residual = 9.11112e-07, No Iterations 473
time step continuity errors : sum local = 4.21475e-10, global = 3.4527e-12, cumulative = -9.79868e-11
smoothSolver:  Solving for epsilon, Initial residual = 0.000838612, Final residual = 1.21332e-06, No Iterations 1
smoothSolver:  Solving for k, Initial residual = 1, Final residual = 6.48249e-06, No Iterations 2
ExecutionTime = 4.75 s  ClockTime = 5 s

Time = 0.05

Courant Number mean: 0.0378272 max: 0.300016
smoothSolver:  Solving for Ux, Initial residual = 0.330538, Final residual = 1.96983e-06, No Iterations 2
smoothSolver:  Solving for Uy, Initial residual = 0.330534, Final residual = 1.9699e-06, No Iterations 2
smoothSolver:  Solving for Uz, Initial residual = 0.759999, Final residual = 2.90573e-06, No Iterations 2
DICPCG:  Solving for p, Initial residual = 0.00463403, Final residual = 0.000229503, No Iterations 465
time step continuity errors : sum local = 1.08413e-07, global = -1.16264e-09, cumulative = -1.26063e-09
DICPCG:  Solving for p, Initial residual = 0.0367566, Final residual = 8.91843e-07, No Iterations 499
time step continuity errors : sum local = 4.14593e-12, global = -9.00048e-15, cumulative = -1.26064e-09
smoothSolver:  Solving for epsilon, Initial residual = 0.00038073, Final residual = 3.45188e-07, No Iterations 1
smoothSolver:  Solving for k, Initial residual = 0.186519, Final residual = 4.85818e-07, No Iterations 2
ExecutionTime = 9.29 s  ClockTime = 10 s

Time = 0.075

Courant Number mean: 0.037827 max: 0.299477
smoothSolver:  Solving for Ux, Initial residual = 0.0253556, Final residual = 3.62873e-07, No Iterations 2
smoothSolver:  Solving for Uy, Initial residual = 0.025387, Final residual = 3.63005e-07, No Iterations 2
smoothSolver:  Solving for Uz, Initial residual = 0.0484293, Final residual = 2.31484e-07, No Iterations 2
DICPCG:  Solving for p, Initial residual = 0.0746559, Final residual = 0.00160632, No Iterations 2
time step continuity errors : sum local = 1.19161e-08, global = -1.42249e-11, cumulative = -1.27486e-09
DICPCG:  Solving for p, Initial residual = 0.00203311, Final residual = 9.65005e-07, No Iterations 483
time step continuity errors : sum local = 6.64157e-12, global = 1.30855e-13, cumulative = -1.27473e-09
smoothSolver:  Solving for epsilon, Initial residual = 0.000367626, Final residual = 3.17873e-07, No Iterations 1
smoothSolver:  Solving for k, Initial residual = 0.10314, Final residual = 3.12677e-07, No Iterations 2
ExecutionTime = 11.19 s  ClockTime = 12 s

Time = 0.1

Courant Number mean: 0.0378267 max: 0.299231
smoothSolver:  Solving for Ux, Initial residual = 0.0138041, Final residual = 2.6926e-07, No Iterations 2
smoothSolver:  Solving for Uy, Initial residual = 0.0138013, Final residual = 2.69246e-07, No Iterations 2
smoothSolver:  Solving for Uz, Initial residual = 0.041253, Final residual = 1.94645e-07, No Iterations 2
DICPCG:  Solving for p, Initial residual = 0.0263878, Final residual = 0.000490516, No Iterations 2
time step continuity errors : sum local = 3.19533e-09, global = -4.7513e-11, cumulative = -1.32225e-09
DICPCG:  Solving for p, Initial residual = 0.000602558, Final residual = 7.49986e-07, No Iterations 480
time step continuity errors : sum local = 4.76415e-12, global = -3.32768e-14, cumulative = -1.32228e-09
smoothSolver:  Solving for epsilon, Initial residual = 0.000356252, Final residual = 3.06291e-07, No Iterations 1
smoothSolver:  Solving for k, Initial residual = 0.0713695, Final residual = 2.15548e-07, No Iterations 2
ExecutionTime = 12.79 s  ClockTime = 13 s

Time = 0.125

Courant Number mean: 0.0378264 max: 0.299002
smoothSolver:  Solving for Ux, Initial residual = 0.0106916, Final residual = 2.30684e-07, No Iterations 2
smoothSolver:  Solving for Uy, Initial residual = 0.0106907, Final residual = 2.30673e-07, No Iterations 2
smoothSolver:  Solving for Uz, Initial residual = 0.0359035, Final residual = 1.68549e-07, No Iterations 2
DICPCG:  Solving for p, Initial residual = 0.0169927, Final residual = 0.000304422, No Iterations 2
time step continuity errors : sum local = 1.86552e-09, global = -5.02278e-11, cumulative = -1.37251e-09
DICPCG:  Solving for p, Initial residual = 0.000374009, Final residual = 9.28387e-07, No Iterations 478
time step continuity errors : sum local = 5.60235e-12, global = 3.89786e-14, cumulative = -1.37247e-09
smoothSolver:  Solving for epsilon, Initial residual = 0.000346122, Final residual = 2.99246e-07, No Iterations 1
smoothSolver:  Solving for k, Initial residual = 0.0546101, Final residual = 1.68247e-07, No Iterations 2
ExecutionTime = 14.39 s  ClockTime = 15 s

Time = 0.15

Courant Number mean: 0.0378261 max: 0.298764
smoothSolver:  Solving for Ux, Initial residual = 0.00884476, Final residual = 2.03182e-07, No Iterations 2
smoothSolver:  Solving for Uy, Initial residual = 0.00884677, Final residual = 2.03191e-07, No Iterations 2
smoothSolver:  Solving for Uz, Initial residual = 0.0317678, Final residual = 1.48526e-07, No Iterations 2
DICPCG:  Solving for p, Initial residual = 0.0119551, Final residual = 0.000250712, No Iterations 2
time step continuity errors : sum local = 1.47847e-09, global = -6.9753e-11, cumulative = -1.44222e-09
DICPCG:  Solving for p, Initial residual = 0.000301338, Final residual = 8.92527e-07, No Iterations 479
time step continuity errors : sum local = 5.20768e-12, global = 2.13108e-14, cumulative = -1.4422e-09
smoothSolver:  Solving for epsilon, Initial residual = 0.000336948, Final residual = 2.92686e-07, No Iterations 1
smoothSolver:  Solving for k, Initial residual = 0.0442554, Final residual = 1.34653e-07, No Iterations 2
ExecutionTime = 16.89 s  ClockTime = 17 s

Time = 0.175

Courant Number mean: 0.0378258 max: 0.298495
smoothSolver:  Solving for Ux, Initial residual = 0.00760477, Final residual = 1.83815e-07, No Iterations 2
smoothSolver:  Solving for Uy, Initial residual = 0.00760731, Final residual = 1.8383e-07, No Iterations 2
smoothSolver:  Solving for Uz, Initial residual = 0.0284618, Final residual = 1.32565e-07, No Iterations 2
DICPCG:  Solving for p, Initial residual = 0.0089352, Final residual = 0.000208177, No Iterations 2
time step continuity errors : sum local = 1.19546e-09, global = -7.0359e-11, cumulative = -1.51256e-09
DICPCG:  Solving for p, Initial residual = 0.000248367, Final residual = 8.17052e-07, No Iterations 479
time step continuity errors : sum local = 4.65517e-12, global = 2.19013e-14, cumulative = -1.51254e-09
smoothSolver:  Solving for epsilon, Initial residual = 0.000328497, Final residual = 2.83507e-07, No Iterations 1
smoothSolver:  Solving for k, Initial residual = 0.0372228, Final residual = 1.13284e-07, No Iterations 2
ExecutionTime = 19.39 s  ClockTime = 20 s

Time = 0.2

Courant Number mean: 0.0378255 max: 0.298282
smoothSolver:  Solving for Ux, Initial residual = 0.00682694, Final residual = 1.7169e-07, No Iterations 2
smoothSolver:  Solving for Uy, Initial residual = 0.00683071, Final residual = 1.71725e-07, No Iterations 2
smoothSolver:  Solving for Uz, Initial residual = 0.0257668, Final residual = 1.19576e-07, No Iterations 2
DICPCG:  Solving for p, Initial residual = 0.0069915, Final residual = 0.000188624, No Iterations 2
time step continuity errors : sum local = 1.06238e-09, global = -7.06248e-11, cumulative = -1.58316e-09
DICPCG:  Solving for p, Initial residual = 0.000221461, Final residual = 8.37638e-07, No Iterations 479
time step continuity errors : sum local = 4.68926e-12, global = 2.9585e-14, cumulative = -1.58313e-09
smoothSolver:  Solving for epsilon, Initial residual = 0.000320655, Final residual = 2.73985e-07, No Iterations 1
smoothSolver:  Solving for k, Initial residual = 0.0321347, Final residual = 9.73478e-08, No Iterations 2
ExecutionTime = 21.38 s  ClockTime = 22 s

Time = 0.225

Courant Number mean: 0.0378253 max: 0.298211
smoothSolver:  Solving for Ux, Initial residual = 0.00623195, Final residual = 1.64202e-07, No Iterations 2
smoothSolver:  Solving for Uy, Initial residual = 0.00623366, Final residual = 1.64226e-07, No Iterations 2
smoothSolver:  Solving for Uz, Initial residual = 0.023543, Final residual = 1.09017e-07, No Iterations 2
DICPCG:  Solving for p, Initial residual = 0.00569254, Final residual = 0.000171577, No Iterations 2
time step continuity errors : sum local = 9.52306e-10, global = -7.20538e-11, cumulative = -1.65519e-09
DICPCG:  Solving for p, Initial residual = 0.000200989, Final residual = 9.03895e-07, No Iterations 462
time step continuity errors : sum local = 4.99271e-12, global = -9.8772e-14, cumulative = -1.65528e-09
smoothSolver:  Solving for epsilon, Initial residual = 0.000313352, Final residual = 2.67283e-07, No Iterations 1
smoothSolver:  Solving for k, Initial residual = 0.0282827, Final residual = 8.5594e-08, No Iterations 2
ExecutionTime = 23.13 s  ClockTime = 24 s

Time = 0.25

Courant Number mean: 0.037825 max: 0.298121
smoothSolver:  Solving for Ux, Initial residual = 0.00575554, Final residual = 1.59132e-07, No Iterations 2
smoothSolver:  Solving for Uy, Initial residual = 0.00575776, Final residual = 1.59173e-07, No Iterations 2
smoothSolver:  Solving for Uz, Initial residual = 0.0216763, Final residual = 1.00316e-07, No Iterations 2
DICPCG:  Solving for p, Initial residual = 0.00473665, Final residual = 0.000152567, No Iterations 2
time step continuity errors : sum local = 8.37255e-10, global = -7.13723e-11, cumulative = -1.72666e-09
DICPCG:  Solving for p, Initial residual = 0.000179091, Final residual = 8.35738e-07, No Iterations 479
time step continuity errors : sum local = 4.56846e-12, global = 2.99839e-14, cumulative = -1.72663e-09
smoothSolver:  Solving for epsilon, Initial residual = 0.000306503, Final residual = 2.61127e-07, No Iterations 1
smoothSolver:  Solving for k, Initial residual = 0.0252649, Final residual = 7.59925e-08, No Iterations 2
ExecutionTime = 25.22 s  ClockTime = 26 s

Time = 0.275

Courant Number mean: 0.0378247 max: 0.298006
smoothSolver:  Solving for Ux, Initial residual = 0.00536474, Final residual = 1.54961e-07, No Iterations 2
smoothSolver:  Solving for Uy, Initial residual = 0.00536804, Final residual = 1.55015e-07, No Iterations 2
smoothSolver:  Solving for Uz, Initial residual = 0.0200796, Final residual = 9.47302e-06, No Iterations 1
DICPCG:  Solving for p, Initial residual = 0.00403864, Final residual = 0.000140566, No Iterations 2
time step continuity errors : sum local = 7.64575e-10, global = -6.95883e-11, cumulative = -1.79622e-09
DICPCG:  Solving for p, Initial residual = 0.000166797, Final residual = 9.16548e-07, No Iterations 458
time step continuity errors : sum local = 4.96932e-12, global = -9.81958e-14, cumulative = -1.79631e-09
smoothSolver:  Solving for epsilon, Initial residual = 0.000300049, Final residual = 2.55056e-07, No Iterations 1
smoothSolver:  Solving for k, Initial residual = 0.0228369, Final residual = 6.81674e-08, No Iterations 2
ExecutionTime = 27.5 s  ClockTime = 28 s

Time = 0.3

Courant Number mean: 0.0378245 max: 0.297864
smoothSolver:  Solving for Ux, Initial residual = 0.00505214, Final residual = 1.51935e-07, No Iterations 2
smoothSolver:  Solving for Uy, Initial residual = 0.00505696, Final residual = 1.51998e-07, No Iterations 2
smoothSolver:  Solving for Uz, Initial residual = 0.0187011, Final residual = 8.82466e-06, No Iterations 1
DICPCG:  Solving for p, Initial residual = 0.00348077, Final residual = 0.00012761, No Iterations 2
time step continuity errors : sum local = 6.89264e-10, global = -6.93945e-11, cumulative = -1.86571e-09
DICPCG:  Solving for p, Initial residual = 0.000151763, Final residual = 8.31514e-07, No Iterations 479
time step continuity errors : sum local = 4.4794e-12, global = 2.75456e-14, cumulative = -1.86568e-09
smoothSolver:  Solving for epsilon, Initial residual = 0.000293948, Final residual = 2.49017e-07, No Iterations 1
smoothSolver:  Solving for k, Initial residual = 0.0208411, Final residual = 6.24727e-08, No Iterations 2
ExecutionTime = 29.54 s  ClockTime = 30 s

Time = 0.325

Courant Number mean: 0.0378242 max: 0.297693
smoothSolver:  Solving for Ux, Initial residual = 0.00482562, Final residual = 1.49375e-07, No Iterations 2
smoothSolver:  Solving for Uy, Initial residual = 0.00482894, Final residual = 1.49416e-07, No Iterations 2
smoothSolver:  Solving for Uz, Initial residual = 0.0174955, Final residual = 8.25873e-06, No Iterations 1
DICPCG:  Solving for p, Initial residual = 0.00303185, Final residual = 0.000114568, No Iterations 2
time step continuity errors : sum local = 6.15418e-10, global = -6.57631e-11, cumulative = -1.93144e-09
DICPCG:  Solving for p, Initial residual = 0.00013717, Final residual = 9.9834e-07, No Iterations 450
time step continuity errors : sum local = 5.35077e-12, global = -4.33561e-14, cumulative = -1.93149e-09
smoothSolver:  Solving for epsilon, Initial residual = 0.000288154, Final residual = 2.43446e-07, No Iterations 1
smoothSolver:  Solving for k, Initial residual = 0.0191713, Final residual = 5.73422e-08, No Iterations 2
ExecutionTime = 31.08 s  ClockTime = 32 s

Time = 0.35

Courant Number mean: 0.0378239 max: 0.297493
smoothSolver:  Solving for Ux, Initial residual = 0.00464161, Final residual = 1.46329e-07, No Iterations 2
smoothSolver:  Solving for Uy, Initial residual = 0.00464356, Final residual = 1.46362e-07, No Iterations 2
smoothSolver:  Solving for Uz, Initial residual = 0.0164296, Final residual = 7.75769e-06, No Iterations 1
DICPCG:  Solving for p, Initial residual = 0.002678, Final residual = 0.000105099, No Iterations 2
time step continuity errors : sum local = 5.62062e-10, global = -6.27187e-11, cumulative = -1.99421e-09
DICPCG:  Solving for p, Initial residual = 0.000125931, Final residual = 9.00011e-07, No Iterations 478
time step continuity errors : sum local = 4.80392e-12, global = 3.99162e-14, cumulative = -1.99417e-09
smoothSolver:  Solving for epsilon, Initial residual = 0.000282638, Final residual = 2.36316e-07, No Iterations 1
smoothSolver:  Solving for k, Initial residual = 0.0177537, Final residual = 5.38485e-08, No Iterations 2
ExecutionTime = 32.71 s  ClockTime = 33 s

Time = 0.375

Courant Number mean: 0.0378237 max: 0.297265
smoothSolver:  Solving for Ux, Initial residual = 0.00448911, Final residual = 1.42715e-07, No Iterations 2
smoothSolver:  Solving for Uy, Initial residual = 0.00449055, Final residual = 1.42743e-07, No Iterations 2
smoothSolver:  Solving for Uz, Initial residual = 0.0154866, Final residual = 7.3116e-06, No Iterations 1
DICPCG:  Solving for p, Initial residual = 0.00240026, Final residual = 9.34755e-05, No Iterations 2
time step continuity errors : sum local = 4.98115e-10, global = -5.82834e-11, cumulative = -2.05245e-09
DICPCG:  Solving for p, Initial residual = 0.000113787, Final residual = 9.93106e-07, No Iterations 249
time step continuity errors : sum local = 5.28325e-12, global = 7.30993e-13, cumulative = -2.05172e-09
smoothSolver:  Solving for epsilon, Initial residual = 0.000277361, Final residual = 2.32022e-07, No Iterations 1
smoothSolver:  Solving for k, Initial residual = 0.0165352, Final residual = 4.97183e-08, No Iterations 2
ExecutionTime = 33.76 s  ClockTime = 34 s

Time = 0.4

Courant Number mean: 0.0378234 max: 0.297012
smoothSolver:  Solving for Ux, Initial residual = 0.00436152, Final residual = 1.3914e-07, No Iterations 2
smoothSolver:  Solving for Uy, Initial residual = 0.00436258, Final residual = 1.39151e-07, No Iterations 2
smoothSolver:  Solving for Uz, Initial residual = 0.0146454, Final residual = 6.91056e-06, No Iterations 1
DICPCG:  Solving for p, Initial residual = 0.00216046, Final residual = 8.50923e-05, No Iterations 2
time step continuity errors : sum local = 4.52284e-10, global = -5.19387e-11, cumulative = -2.10366e-09
DICPCG:  Solving for p, Initial residual = 0.000104582, Final residual = 9.83742e-07, No Iterations 388
time step continuity errors : sum local = 5.22119e-12, global = -7.065e-14, cumulative = -2.10373e-09
smoothSolver:  Solving for epsilon, Initial residual = 0.000272326, Final residual = 2.26452e-07, No Iterations 1
smoothSolver:  Solving for k, Initial residual = 0.0154766, Final residual = 4.62368e-08, No Iterations 2
ExecutionTime = 35.13 s  ClockTime = 36 s

Time = 0.425

Courant Number mean: 0.0378232 max: 0.296738
smoothSolver:  Solving for Ux, Initial residual = 0.00424295, Final residual = 1.34967e-07, No Iterations 2
smoothSolver:  Solving for Uy, Initial residual = 0.00424416, Final residual = 1.34979e-07, No Iterations 2
smoothSolver:  Solving for Uz, Initial residual = 0.0138852, Final residual = 6.54774e-06, No Iterations 1
DICPCG:  Solving for p, Initial residual = 0.0019741, Final residual = 7.7434e-05, No Iterations 2
time step continuity errors : sum local = 4.10366e-10, global = -5.04245e-11, cumulative = -2.15415e-09
DICPCG:  Solving for p, Initial residual = 9.63316e-05, Final residual = 9.95876e-07, No Iterations 229
time step continuity errors : sum local = 5.27093e-12, global = -3.97685e-13, cumulative = -2.15455e-09
smoothSolver:  Solving for epsilon, Initial residual = 0.000267513, Final residual = 2.20413e-07, No Iterations 1
smoothSolver:  Solving for k, Initial residual = 0.0145481, Final residual = 9.95836e-06, No Iterations 1
ExecutionTime = 36.33 s  ClockTime = 37 s

Time = 0.45

Courant Number mean: 0.0378229 max: 0.296448
smoothSolver:  Solving for Ux, Initial residual = 0.00412938, Final residual = 1.31527e-07, No Iterations 2
smoothSolver:  Solving for Uy, Initial residual = 0.00413016, Final residual = 1.31532e-07, No Iterations 2
smoothSolver:  Solving for Uz, Initial residual = 0.0132027, Final residual = 6.22046e-06, No Iterations 1
DICPCG:  Solving for p, Initial residual = 0.00179061, Final residual = 7.05647e-05, No Iterations 2
time step continuity errors : sum local = 3.73306e-10, global = -4.86488e-11, cumulative = -2.2032e-09
DICPCG:  Solving for p, Initial residual = 8.90053e-05, Final residual = 9.90921e-07, No Iterations 447
time step continuity errors : sum local = 5.23633e-12, global = -1.27167e-13, cumulative = -2.20333e-09
smoothSolver:  Solving for epsilon, Initial residual = 0.000262917, Final residual = 2.15886e-07, No Iterations 1
smoothSolver:  Solving for k, Initial residual = 0.0137273, Final residual = 9.02139e-06, No Iterations 1
ExecutionTime = 37.98 s  ClockTime = 39 s

Time = 0.475

Courant Number mean: 0.0378227 max: 0.296146
smoothSolver:  Solving for Ux, Initial residual = 0.00403923, Final residual = 9.795e-06, No Iterations 1
smoothSolver:  Solving for Uy, Initial residual = 0.00403988, Final residual = 9.79676e-06, No Iterations 1
smoothSolver:  Solving for Uz, Initial residual = 0.0125872, Final residual = 5.92361e-06, No Iterations 1
DICPCG:  Solving for p, Initial residual = 0.00163748, Final residual = 6.4146e-05, No Iterations 2
time step continuity errors : sum local = 3.39035e-10, global = -4.44373e-11, cumulative = -2.24776e-09
DICPCG:  Solving for p, Initial residual = 8.49488e-05, Final residual = 9.88764e-07, No Iterations 133
time step continuity errors : sum local = 5.22072e-12, global = -1.42085e-13, cumulative = -2.2479e-09
smoothSolver:  Solving for epsilon, Initial residual = 0.000258486, Final residual = 2.11484e-07, No Iterations 1
smoothSolver:  Solving for k, Initial residual = 0.0129964, Final residual = 8.17423e-06, No Iterations 1
ExecutionTime = 38.77 s  ClockTime = 39 s

Time = 0.5

Courant Number mean: 0.0378224 max: 0.295839
smoothSolver:  Solving for Ux, Initial residual = 0.00397564, Final residual = 9.55459e-06, No Iterations 1
smoothSolver:  Solving for Uy, Initial residual = 0.00397611, Final residual = 9.55637e-06, No Iterations 1
smoothSolver:  Solving for Uz, Initial residual = 0.0120236, Final residual = 5.65158e-06, No Iterations 1
DICPCG:  Solving for p, Initial residual = 0.00151515, Final residual = 5.97524e-05, No Iterations 2
time step continuity errors : sum local = 3.15394e-10, global = -4.16982e-11, cumulative = -2.2896e-09
DICPCG:  Solving for p, Initial residual = 8.0026e-05, Final residual = 9.69242e-07, No Iterations 342
time step continuity errors : sum local = 5.11154e-12, global = -1.15374e-13, cumulative = -2.28972e-09
smoothSolver:  Solving for epsilon, Initial residual = 0.000254253, Final residual = 2.07742e-07, No Iterations 1
smoothSolver:  Solving for k, Initial residual = 0.0123412, Final residual = 8.00026e-06, No Iterations 1
ExecutionTime = 40.25 s  ClockTime = 41 s

Time = 0.525

Courant Number mean: 0.0378222 max: 0.29553
smoothSolver:  Solving for Ux, Initial residual = 0.00391207, Final residual = 9.28648e-06, No Iterations 1
smoothSolver:  Solving for Uy, Initial residual = 0.00391231, Final residual = 9.28815e-06, No Iterations 1
smoothSolver:  Solving for Uz, Initial residual = 0.0115102, Final residual = 5.40327e-06, No Iterations 1
DICPCG:  Solving for p, Initial residual = 0.00141594, Final residual = 5.56455e-05, No Iterations 2
time step continuity errors : sum local = 2.93512e-10, global = -3.73295e-11, cumulative = -2.32705e-09
DICPCG:  Solving for p, Initial residual = 7.57155e-05, Final residual = 9.98712e-07, No Iterations 317
time step continuity errors : sum local = 5.26373e-12, global = 4.47035e-14, cumulative = -2.327e-09
smoothSolver:  Solving for epsilon, Initial residual = 0.000250196, Final residual = 2.05282e-07, No Iterations 1
smoothSolver:  Solving for k, Initial residual = 0.0117506, Final residual = 7.57736e-06, No Iterations 1
ExecutionTime = 41.5 s  ClockTime = 42 s

Time = 0.55

Courant Number mean: 0.0378219 max: 0.295226
smoothSolver:  Solving for Ux, Initial residual = 0.00384964, Final residual = 9.02411e-06, No Iterations 1
smoothSolver:  Solving for Uy, Initial residual = 0.00384979, Final residual = 9.02532e-06, No Iterations 1
smoothSolver:  Solving for Uz, Initial residual = 0.0110388, Final residual = 5.17493e-06, No Iterations 1
DICPCG:  Solving for p, Initial residual = 0.00131727, Final residual = 5.0463e-05, No Iterations 2
time step continuity errors : sum local = 2.66034e-10, global = -3.32158e-11, cumulative = -2.36022e-09
DICPCG:  Solving for p, Initial residual = 7.0432e-05, Final residual = 8.68499e-07, No Iterations 469
time step continuity errors : sum local = 4.57535e-12, global = -4.92086e-14, cumulative = -2.36027e-09
smoothSolver:  Solving for epsilon, Initial residual = 0.000246377, Final residual = 2.02449e-07, No Iterations 1
smoothSolver:  Solving for k, Initial residual = 0.0112152, Final residual = 7.22779e-06, No Iterations 1
ExecutionTime = 43.22 s  ClockTime = 44 s

Time = 0.575

Courant Number mean: 0.0378217 max: 0.294932
smoothSolver:  Solving for Ux, Initial residual = 0.00379173, Final residual = 8.83854e-06, No Iterations 1
smoothSolver:  Solving for Uy, Initial residual = 0.00379177, Final residual = 8.83938e-06, No Iterations 1
smoothSolver:  Solving for Uz, Initial residual = 0.010605, Final residual = 4.96402e-06, No Iterations 1
DICPCG:  Solving for p, Initial residual = 0.00123042, Final residual = 4.64453e-05, No Iterations 2
time step continuity errors : sum local = 2.44785e-10, global = -2.98114e-11, cumulative = -2.39008e-09
DICPCG:  Solving for p, Initial residual = 6.56623e-05, Final residual = 9.93036e-07, No Iterations 422
time step continuity errors : sum local = 5.2304e-12, global = -2.06104e-13, cumulative = -2.39029e-09
smoothSolver:  Solving for epsilon, Initial residual = 0.000242788, Final residual = 2.01494e-07, No Iterations 1
smoothSolver:  Solving for k, Initial residual = 0.0107278, Final residual = 6.84088e-06, No Iterations 1
ExecutionTime = 44.89 s  ClockTime = 45 s

Time = 0.6

Courant Number mean: 0.0378214 max: 0.294651
smoothSolver:  Solving for Ux, Initial residual = 0.00373783, Final residual = 8.70324e-06, No Iterations 1
smoothSolver:  Solving for Uy, Initial residual = 0.00373794, Final residual = 8.70472e-06, No Iterations 1
smoothSolver:  Solving for Uz, Initial residual = 0.0102043, Final residual = 4.76822e-06, No Iterations 1
DICPCG:  Solving for p, Initial residual = 0.00115034, Final residual = 4.41104e-05, No Iterations 2
time step continuity errors : sum local = 2.32454e-10, global = -2.70963e-11, cumulative = -2.41738e-09
DICPCG:  Solving for p, Initial residual = 6.31266e-05, Final residual = 9.37301e-07, No Iterations 434
time step continuity errors : sum local = 4.93667e-12, global = 6.27904e-14, cumulative = -2.41732e-09
smoothSolver:  Solving for epsilon, Initial residual = 0.000239264, Final residual = 1.98457e-07, No Iterations 1
smoothSolver:  Solving for k, Initial residual = 0.0102819, Final residual = 6.53755e-06, No Iterations 1
ExecutionTime = 46.45 s  ClockTime = 47 s

Time = 0.625

Courant Number mean: 0.0378212 max: 0.294389
smoothSolver:  Solving for Ux, Initial residual = 0.00368346, Final residual = 8.56392e-06, No Iterations 1
smoothSolver:  Solving for Uy, Initial residual = 0.00368353, Final residual = 8.56618e-06, No Iterations 1
smoothSolver:  Solving for Uz, Initial residual = 0.00983303, Final residual = 4.58551e-06, No Iterations 1
DICPCG:  Solving for p, Initial residual = 0.00109351, Final residual = 4.28565e-05, No Iterations 2
time step continuity errors : sum local = 2.25873e-10, global = -2.24109e-11, cumulative = -2.43973e-09
DICPCG:  Solving for p, Initial residual = 6.13656e-05, Final residual = 9.94937e-07, No Iterations 468
time step continuity errors : sum local = 5.24123e-12, global = -6.97833e-14, cumulative = -2.4398e-09
smoothSolver:  Solving for epsilon, Initial residual = 0.000235893, Final residual = 1.956e-07, No Iterations 1
smoothSolver:  Solving for k, Initial residual = 0.00987268, Final residual = 6.29251e-06, No Iterations 1
ExecutionTime = 48.53 s  ClockTime = 49 s

Time = 0.65

Courant Number mean: 0.0378209 max: 0.294148
smoothSolver:  Solving for Ux, Initial residual = 0.00363296, Final residual = 8.41674e-06, No Iterations 1
smoothSolver:  Solving for Uy, Initial residual = 0.00363303, Final residual = 8.41887e-06, No Iterations 1
smoothSolver:  Solving for Uz, Initial residual = 0.00948826, Final residual = 4.41706e-06, No Iterations 1
DICPCG:  Solving for p, Initial residual = 0.00102631, Final residual = 3.80389e-05, No Iterations 2
time step continuity errors : sum local = 2.00539e-10, global = -2.13176e-11, cumulative = -2.46112e-09
DICPCG:  Solving for p, Initial residual = 5.64425e-05, Final residual = 9.91924e-07, No Iterations 441
time step continuity errors : sum local = 5.22725e-12, global = -1.28625e-13, cumulative = -2.46125e-09
smoothSolver:  Solving for epsilon, Initial residual = 0.000232697, Final residual = 1.93324e-07, No Iterations 1
smoothSolver:  Solving for k, Initial residual = 0.00949567, Final residual = 6.06201e-06, No Iterations 1
ExecutionTime = 50.41 s  ClockTime = 51 s

Time = 0.675

Courant Number mean: 0.0378207 max: 0.293932
smoothSolver:  Solving for Ux, Initial residual = 0.00358641, Final residual = 8.24395e-06, No Iterations 1
smoothSolver:  Solving for Uy, Initial residual = 0.00358641, Final residual = 8.24595e-06, No Iterations 1
smoothSolver:  Solving for Uz, Initial residual = 0.00916707, Final residual = 4.2608e-06, No Iterations 1
DICPCG:  Solving for p, Initial residual = 0.000973157, Final residual = 3.63895e-05, No Iterations 2
time step continuity errors : sum local = 1.91926e-10, global = -1.78399e-11, cumulative = -2.47909e-09
DICPCG:  Solving for p, Initial residual = 5.47335e-05, Final residual = 9.2545e-07, No Iterations 470
time step continuity errors : sum local = 4.87923e-12, global = -6.31615e-14, cumulative = -2.47915e-09
smoothSolver:  Solving for epsilon, Initial residual = 0.000229602, Final residual = 1.91873e-07, No Iterations 1
smoothSolver:  Solving for k, Initial residual = 0.00914726, Final residual = 5.83145e-06, No Iterations 1
ExecutionTime = 52.56 s  ClockTime = 53 s

Time = 0.7

Courant Number mean: 0.0378205 max: 0.293742
smoothSolver:  Solving for Ux, Initial residual = 0.003538, Final residual = 8.07924e-06, No Iterations 1
smoothSolver:  Solving for Uy, Initial residual = 0.00353813, Final residual = 8.08127e-06, No Iterations 1
smoothSolver:  Solving for Uz, Initial residual = 0.0088672, Final residual = 4.11534e-06, No Iterations 1
DICPCG:  Solving for p, Initial residual = 0.000928108, Final residual = 3.33375e-05, No Iterations 2
time step continuity errors : sum local = 1.75929e-10, global = -1.53261e-11, cumulative = -2.49448e-09
DICPCG:  Solving for p, Initial residual = 5.15947e-05, Final residual = 8.77685e-07, No Iterations 471
time step continuity errors : sum local = 4.63021e-12, global = -9.52002e-14, cumulative = -2.49457e-09
smoothSolver:  Solving for epsilon, Initial residual = 0.000226643, Final residual = 1.87927e-07, No Iterations 1
smoothSolver:  Solving for k, Initial residual = 0.00882427, Final residual = 5.66573e-06, No Iterations 1
ExecutionTime = 54.62 s  ClockTime = 55 s

Time = 0.725

Courant Number mean: 0.0378202 max: 0.29358
smoothSolver:  Solving for Ux, Initial residual = 0.00348812, Final residual = 7.90429e-06, No Iterations 1
smoothSolver:  Solving for Uy, Initial residual = 0.00348785, Final residual = 7.90671e-06, No Iterations 1
smoothSolver:  Solving for Uz, Initial residual = 0.00858663, Final residual = 3.97925e-06, No Iterations 1
DICPCG:  Solving for p, Initial residual = 0.000897215, Final residual = 3.03204e-05, No Iterations 2
time step continuity errors : sum local = 1.60108e-10, global = -1.24101e-11, cumulative = -2.50698e-09
DICPCG:  Solving for p, Initial residual = 4.82633e-05, Final residual = 8.19793e-07, No Iterations 470
time step continuity errors : sum local = 4.32764e-12, global = -3.81295e-14, cumulative = -2.50702e-09
smoothSolver:  Solving for epsilon, Initial residual = 0.00022375, Final residual = 1.85985e-07, No Iterations 1
smoothSolver:  Solving for k, Initial residual = 0.00852399, Final residual = 5.50087e-06, No Iterations 1
ExecutionTime = 56.55 s  ClockTime = 57 s

Time = 0.75

Courant Number mean: 0.03782 max: 0.293446
smoothSolver:  Solving for Ux, Initial residual = 0.00343873, Final residual = 7.75327e-06, No Iterations 1
smoothSolver:  Solving for Uy, Initial residual = 0.0034386, Final residual = 7.75624e-06, No Iterations 1
smoothSolver:  Solving for Uz, Initial residual = 0.00832349, Final residual = 3.85223e-06, No Iterations 1
DICPCG:  Solving for p, Initial residual = 0.000850247, Final residual = 2.80725e-05, No Iterations 2
time step continuity errors : sum local = 1.48344e-10, global = -1.03934e-11, cumulative = -2.51741e-09
DICPCG:  Solving for p, Initial residual = 4.57893e-05, Final residual = 7.85991e-07, No Iterations 472
time step continuity errors : sum local = 4.15229e-12, global = -7.4312e-14, cumulative = -2.51749e-09
smoothSolver:  Solving for epsilon, Initial residual = 0.000220942, Final residual = 1.83949e-07, No Iterations 1
smoothSolver:  Solving for k, Initial residual = 0.00824407, Final residual = 5.36586e-06, No Iterations 1
ExecutionTime = 58.21 s  ClockTime = 59 s

Time = 0.775

Courant Number mean: 0.0378197 max: 0.293341
smoothSolver:  Solving for Ux, Initial residual = 0.00339201, Final residual = 7.60146e-06, No Iterations 1
smoothSolver:  Solving for Uy, Initial residual = 0.00339205, Final residual = 7.60345e-06, No Iterations 1
smoothSolver:  Solving for Uz, Initial residual = 0.00807622, Final residual = 3.73435e-06, No Iterations 1
DICPCG:  Solving for p, Initial residual = 0.000810231, Final residual = 2.60717e-05, No Iterations 2
time step continuity errors : sum local = 1.37881e-10, global = -9.09913e-12, cumulative = -2.52659e-09
DICPCG:  Solving for p, Initial residual = 4.49406e-05, Final residual = 8.05792e-07, No Iterations 470
time step continuity errors : sum local = 4.26049e-12, global = 1.7664e-14, cumulative = -2.52657e-09
smoothSolver:  Solving for epsilon, Initial residual = 0.000218208, Final residual = 1.81786e-07, No Iterations 1
smoothSolver:  Solving for k, Initial residual = 0.00798247, Final residual = 5.21488e-06, No Iterations 1
ExecutionTime = 60.03 s  ClockTime = 61 s

Time = 0.8

Courant Number mean: 0.0378195 max: 0.293264
smoothSolver:  Solving for Ux, Initial residual = 0.00334804, Final residual = 7.43896e-06, No Iterations 1
smoothSolver:  Solving for Uy, Initial residual = 0.0033481, Final residual = 7.44171e-06, No Iterations 1
smoothSolver:  Solving for Uz, Initial residual = 0.00784343, Final residual = 3.62488e-06, No Iterations 1
DICPCG:  Solving for p, Initial residual = 0.000764821, Final residual = 2.81722e-05, No Iterations 2
time step continuity errors : sum local = 1.49119e-10, global = -7.49993e-12, cumulative = -2.53407e-09
DICPCG:  Solving for p, Initial residual = 4.53602e-05, Final residual = 9.97622e-07, No Iterations 471
time step continuity errors : sum local = 5.27937e-12, global = -8.13545e-14, cumulative = -2.53415e-09
smoothSolver:  Solving for epsilon, Initial residual = 0.000215581, Final residual = 1.80332e-07, No Iterations 1
smoothSolver:  Solving for k, Initial residual = 0.00773748, Final residual = 5.10028e-06, No Iterations 1
ExecutionTime = 61.89 s  ClockTime = 63 s

Time = 0.825

Courant Number mean: 0.0378192 max: 0.293215
smoothSolver:  Solving for Ux, Initial residual = 0.00330467, Final residual = 7.25144e-06, No Iterations 1
smoothSolver:  Solving for Uy, Initial residual = 0.00330474, Final residual = 7.25437e-06, No Iterations 1
smoothSolver:  Solving for Uz, Initial residual = 0.00762382, Final residual = 3.52207e-06, No Iterations 1
DICPCG:  Solving for p, Initial residual = 0.000743417, Final residual = 2.62483e-05, No Iterations 2
time step continuity errors : sum local = 1.39063e-10, global = -6.33642e-12, cumulative = -2.54049e-09
DICPCG:  Solving for p, Initial residual = 4.40653e-05, Final residual = 8.31577e-07, No Iterations 471
time step continuity errors : sum local = 4.40483e-12, global = -8.23321e-14, cumulative = -2.54057e-09
smoothSolver:  Solving for epsilon, Initial residual = 0.000213019, Final residual = 1.78107e-07, No Iterations 1
smoothSolver:  Solving for k, Initial residual = 0.00750751, Final residual = 4.99954e-06, No Iterations 1
ExecutionTime = 63.44 s  ClockTime = 64 s

Time = 0.85

Courant Number mean: 0.037819 max: 0.293192
smoothSolver:  Solving for Ux, Initial residual = 0.00326432, Final residual = 7.06394e-06, No Iterations 1
smoothSolver:  Solving for Uy, Initial residual = 0.00326432, Final residual = 7.0668e-06, No Iterations 1
smoothSolver:  Solving for Uz, Initial residual = 0.00741637, Final residual = 3.42535e-06, No Iterations 1
DICPCG:  Solving for p, Initial residual = 0.000716255, Final residual = 2.61639e-05, No Iterations 2
time step continuity errors : sum local = 1.38753e-10, global = -5.70405e-12, cumulative = -2.54627e-09
DICPCG:  Solving for p, Initial residual = 4.34572e-05, Final residual = 9.88055e-07, No Iterations 471
time step continuity errors : sum local = 5.23903e-12, global = -9.07019e-14, cumulative = -2.54636e-09
smoothSolver:  Solving for epsilon, Initial residual = 0.00021053, Final residual = 1.76264e-07, No Iterations 1
smoothSolver:  Solving for k, Initial residual = 0.00729124, Final residual = 4.88119e-06, No Iterations 1
ExecutionTime = 64.96 s  ClockTime = 66 s

Time = 0.875

Courant Number mean: 0.0378187 max: 0.293192
smoothSolver:  Solving for Ux, Initial residual = 0.0032251, Final residual = 6.85324e-06, No Iterations 1
smoothSolver:  Solving for Uy, Initial residual = 0.00322516, Final residual = 6.85607e-06, No Iterations 1
smoothSolver:  Solving for Uz, Initial residual = 0.00722008, Final residual = 3.33412e-06, No Iterations 1
DICPCG:  Solving for p, Initial residual = 0.000694545, Final residual = 2.5304e-05, No Iterations 2
time step continuity errors : sum local = 1.34335e-10, global = -4.54008e-12, cumulative = -2.5509e-09
DICPCG:  Solving for p, Initial residual = 4.28796e-05, Final residual = 9.56627e-07, No Iterations 471
time step continuity errors : sum local = 5.07794e-12, global = -1.17346e-13, cumulative = -2.55102e-09
smoothSolver:  Solving for epsilon, Initial residual = 0.000208106, Final residual = 1.74105e-07, No Iterations 1
smoothSolver:  Solving for k, Initial residual = 0.00708745, Final residual = 4.76811e-06, No Iterations 1
ExecutionTime = 66.53 s  ClockTime = 67 s

Time = 0.9

Courant Number mean: 0.0378185 max: 0.293213
smoothSolver:  Solving for Ux, Initial residual = 0.00318576, Final residual = 6.65775e-06, No Iterations 1
smoothSolver:  Solving for Uy, Initial residual = 0.0031858, Final residual = 6.65991e-06, No Iterations 1
smoothSolver:  Solving for Uz, Initial residual = 0.00703412, Final residual = 3.24774e-06, No Iterations 1
DICPCG:  Solving for p, Initial residual = 0.000663239, Final residual = 2.41673e-05, No Iterations 2
time step continuity errors : sum local = 1.28443e-10, global = -4.20272e-12, cumulative = -2.55522e-09
DICPCG:  Solving for p, Initial residual = 4.13615e-05, Final residual = 9.03589e-07, No Iterations 471
time step continuity errors : sum local = 4.80183e-12, global = -9.46506e-14, cumulative = -2.55532e-09
smoothSolver:  Solving for epsilon, Initial residual = 0.000205749, Final residual = 1.71964e-07, No Iterations 1
smoothSolver:  Solving for k, Initial residual = 0.00689503, Final residual = 4.67096e-06, No Iterations 1
ExecutionTime = 68.06 s  ClockTime = 69 s

Time = 0.925

Courant Number mean: 0.0378183 max: 0.293251
smoothSolver:  Solving for Ux, Initial residual = 0.003148, Final residual = 6.51266e-06, No Iterations 1
smoothSolver:  Solving for Uy, Initial residual = 0.00314814, Final residual = 6.51569e-06, No Iterations 1
smoothSolver:  Solving for Uz, Initial residual = 0.00685779, Final residual = 3.16583e-06, No Iterations 1
DICPCG:  Solving for p, Initial residual = 0.000636389, Final residual = 2.30949e-05, No Iterations 2
time step continuity errors : sum local = 1.22885e-10, global = -3.67745e-12, cumulative = -2.55899e-09
DICPCG:  Solving for p, Initial residual = 3.99701e-05, Final residual = 9.24466e-07, No Iterations 471
time step continuity errors : sum local = 4.91848e-12, global = -1.27319e-13, cumulative = -2.55912e-09
smoothSolver:  Solving for epsilon, Initial residual = 0.000203463, Final residual = 1.69933e-07, No Iterations 1
smoothSolver:  Solving for k, Initial residual = 0.00671304, Final residual = 4.55923e-06, No Iterations 1
ExecutionTime = 69.58 s  ClockTime = 70 s

Time = 0.95

Courant Number mean: 0.037818 max: 0.293303
smoothSolver:  Solving for Ux, Initial residual = 0.00311119, Final residual = 6.37335e-06, No Iterations 1
smoothSolver:  Solving for Uy, Initial residual = 0.0031113, Final residual = 6.37607e-06, No Iterations 1
smoothSolver:  Solving for Uz, Initial residual = 0.0066903, Final residual = 3.08788e-06, No Iterations 1
DICPCG:  Solving for p, Initial residual = 0.000621824, Final residual = 2.32496e-05, No Iterations 2
time step continuity errors : sum local = 1.23853e-10, global = -3.70174e-12, cumulative = -2.56282e-09
DICPCG:  Solving for p, Initial residual = 4.06565e-05, Final residual = 8.59798e-07, No Iterations 471
time step continuity errors : sum local = 4.57981e-12, global = -1.2107e-13, cumulative = -2.56294e-09
smoothSolver:  Solving for epsilon, Initial residual = 0.000201236, Final residual = 1.68123e-07, No Iterations 1
smoothSolver:  Solving for k, Initial residual = 0.00654063, Final residual = 4.46898e-06, No Iterations 1
ExecutionTime = 71.17 s  ClockTime = 72 s

Time = 0.975

Courant Number mean: 0.0378178 max: 0.293368
smoothSolver:  Solving for Ux, Initial residual = 0.00307589, Final residual = 6.26912e-06, No Iterations 1
smoothSolver:  Solving for Uy, Initial residual = 0.00307597, Final residual = 6.27173e-06, No Iterations 1
smoothSolver:  Solving for Uz, Initial residual = 0.00653094, Final residual = 3.0128e-06, No Iterations 1
DICPCG:  Solving for p, Initial residual = 0.000581835, Final residual = 2.12918e-05, No Iterations 2
time step continuity errors : sum local = 1.13561e-10, global = -3.84362e-12, cumulative = -2.56679e-09
DICPCG:  Solving for p, Initial residual = 3.79285e-05, Final residual = 8.36057e-07, No Iterations 471
time step continuity errors : sum local = 4.45893e-12, global = -1.06532e-13, cumulative = -2.5669e-09
smoothSolver:  Solving for epsilon, Initial residual = 0.000199059, Final residual = 1.65559e-07, No Iterations 1
smoothSolver:  Solving for k, Initial residual = 0.00637706, Final residual = 4.38178e-06, No Iterations 1
ExecutionTime = 73.02 s  ClockTime = 74 s

Time = 1

Courant Number mean: 0.0378175 max: 0.29344
smoothSolver:  Solving for Ux, Initial residual = 0.00304011, Final residual = 6.17045e-06, No Iterations 1
smoothSolver:  Solving for Uy, Initial residual = 0.00304015, Final residual = 6.17256e-06, No Iterations 1
smoothSolver:  Solving for Uz, Initial residual = 0.00637911, Final residual = 2.94059e-06, No Iterations 1
DICPCG:  Solving for p, Initial residual = 0.000568783, Final residual = 2.06066e-05, No Iterations 2
time step continuity errors : sum local = 1.10044e-10, global = -3.00435e-12, cumulative = -2.5699e-09
DICPCG:  Solving for p, Initial residual = 3.72401e-05, Final residual = 9.37485e-07, No Iterations 471
time step continuity errors : sum local = 5.00616e-12, global = -1.47903e-13, cumulative = -2.57005e-09
smoothSolver:  Solving for epsilon, Initial residual = 0.000196975, Final residual = 1.62907e-07, No Iterations 1
smoothSolver:  Solving for k, Initial residual = 0.00622165, Final residual = 4.33529e-06, No Iterations 1
ExecutionTime = 75.03 s  ClockTime = 76 s

Time = 1.025

Courant Number mean: 0.0378173 max: 0.293517
smoothSolver:  Solving for Ux, Initial residual = 0.0030055, Final residual = 6.06534e-06, No Iterations 1
smoothSolver:  Solving for Uy, Initial residual = 0.00300556, Final residual = 6.06686e-06, No Iterations 1
smoothSolver:  Solving for Uz, Initial residual = 0.00623423, Final residual = 2.87111e-06, No Iterations 1
DICPCG:  Solving for p, Initial residual = 0.000551176, Final residual = 2.06043e-05, No Iterations 2
time step continuity errors : sum local = 1.1017e-10, global = -2.97479e-12, cumulative = -2.57302e-09
DICPCG:  Solving for p, Initial residual = 3.70178e-05, Final residual = 9.23223e-07, No Iterations 471
time step continuity errors : sum local = 4.93616e-12, global = -1.39835e-13, cumulative = -2.57316e-09
smoothSolver:  Solving for epsilon, Initial residual = 0.000194899, Final residual = 1.61792e-07, No Iterations 1
smoothSolver:  Solving for k, Initial residual = 0.00607381, Final residual = 4.21133e-06, No Iterations 1
ExecutionTime = 76.99 s  ClockTime = 78 s

Time = 1.05

Courant Number mean: 0.037817 max: 0.293597
smoothSolver:  Solving for Ux, Initial residual = 0.00297097, Final residual = 5.98265e-06, No Iterations 1
smoothSolver:  Solving for Uy, Initial residual = 0.00297107, Final residual = 5.98486e-06, No Iterations 1
smoothSolver:  Solving for Uz, Initial residual = 0.00609584, Final residual = 2.80455e-06, No Iterations 1
DICPCG:  Solving for p, Initial residual = 0.000526885, Final residual = 1.84177e-05, No Iterations 2
time step continuity errors : sum local = 9.86015e-11, global = -3.31584e-12, cumulative = -2.57648e-09
DICPCG:  Solving for p, Initial residual = 3.49613e-05, Final residual = 8.62502e-07, No Iterations 471
time step continuity errors : sum local = 4.61728e-12, global = -1.32267e-13, cumulative = -2.57661e-09
smoothSolver:  Solving for epsilon, Initial residual = 0.00019291, Final residual = 1.58851e-07, No Iterations 1
smoothSolver:  Solving for k, Initial residual = 0.00593295, Final residual = 4.17259e-06, No Iterations 1
ExecutionTime = 79.64 s  ClockTime = 80 s

Time = 1.075

Courant Number mean: 0.0378168 max: 0.293676
smoothSolver:  Solving for Ux, Initial residual = 0.00293702, Final residual = 5.90168e-06, No Iterations 1
smoothSolver:  Solving for Uy, Initial residual = 0.00293718, Final residual = 5.90411e-06, No Iterations 1
smoothSolver:  Solving for Uz, Initial residual = 0.00596356, Final residual = 2.74086e-06, No Iterations 1
DICPCG:  Solving for p, Initial residual = 0.000514974, Final residual = 1.75701e-05, No Iterations 2
time step continuity errors : sum local = 9.41816e-11, global = -4.38509e-12, cumulative = -2.581e-09
DICPCG:  Solving for p, Initial residual = 3.43578e-05, Final residual = 8.60763e-07, No Iterations 471
time step continuity errors : sum local = 4.61377e-12, global = -1.10624e-13, cumulative = -2.58111e-09
smoothSolver:  Solving for epsilon, Initial residual = 0.000190937, Final residual = 1.57136e-07, No Iterations 1
smoothSolver:  Solving for k, Initial residual = 0.00579861, Final residual = 4.05622e-06, No Iterations 1
ExecutionTime = 81.48 s  ClockTime = 82 s

Time = 1.1

Courant Number mean: 0.0378165 max: 0.293752
smoothSolver:  Solving for Ux, Initial residual = 0.00290244, Final residual = 5.82875e-06, No Iterations 1
smoothSolver:  Solving for Uy, Initial residual = 0.00290254, Final residual = 5.8305e-06, No Iterations 1
smoothSolver:  Solving for Uz, Initial residual = 0.005837, Final residual = 2.67962e-06, No Iterations 1
DICPCG:  Solving for p, Initial residual = 0.000497353, Final residual = 1.6906e-05, No Iterations 2
time step continuity errors : sum local = 9.07356e-11, global = -4.60129e-12, cumulative = -2.58571e-09
DICPCG:  Solving for p, Initial residual = 3.33768e-05, Final residual = 9.00091e-07, No Iterations 471
time step continuity errors : sum local = 4.8307e-12, global = -1.38477e-13, cumulative = -2.58585e-09
smoothSolver:  Solving for epsilon, Initial residual = 0.000189059, Final residual = 1.55046e-07, No Iterations 1
smoothSolver:  Solving for k, Initial residual = 0.00567032, Final residual = 4.00632e-06, No Iterations 1
ExecutionTime = 83.06 s  ClockTime = 84 s

Time = 1.125

Courant Number mean: 0.0378163 max: 0.293822
smoothSolver:  Solving for Ux, Initial residual = 0.0028673, Final residual = 5.77237e-06, No Iterations 1
smoothSolver:  Solving for Uy, Initial residual = 0.00286741, Final residual = 5.77434e-06, No Iterations 1
smoothSolver:  Solving for Uz, Initial residual = 0.00571577, Final residual = 2.62098e-06, No Iterations 1
DICPCG:  Solving for p, Initial residual = 0.000482075, Final residual = 1.67779e-05, No Iterations 2
time step continuity errors : sum local = 9.0163e-11, global = -4.93414e-12, cumulative = -2.59078e-09
DICPCG:  Solving for p, Initial residual = 3.27356e-05, Final residual = 9.03054e-07, No Iterations 471
time step continuity errors : sum local = 4.85282e-12, global = -1.43317e-13, cumulative = -2.59092e-09
smoothSolver:  Solving for epsilon, Initial residual = 0.000187183, Final residual = 1.526e-07, No Iterations 1
smoothSolver:  Solving for k, Initial residual = 0.00554769, Final residual = 3.92805e-06, No Iterations 1
ExecutionTime = 84.87 s  ClockTime = 86 s

Time = 1.15

Courant Number mean: 0.0378161 max: 0.293885
smoothSolver:  Solving for Ux, Initial residual = 0.00283347, Final residual = 5.72413e-06, No Iterations 1
smoothSolver:  Solving for Uy, Initial residual = 0.00283355, Final residual = 5.72526e-06, No Iterations 1
smoothSolver:  Solving for Uz, Initial residual = 0.00559949, Final residual = 2.56521e-06, No Iterations 1
DICPCG:  Solving for p, Initial residual = 0.000475089, Final residual = 1.6174e-05, No Iterations 2
time step continuity errors : sum local = 8.7029e-11, global = -4.6657e-12, cumulative = -2.59559e-09
DICPCG:  Solving for p, Initial residual = 3.23471e-05, Final residual = 8.67447e-07, No Iterations 471
time step continuity errors : sum local = 4.66746e-12, global = -1.47147e-13, cumulative = -2.59574e-09
smoothSolver:  Solving for epsilon, Initial residual = 0.000185373, Final residual = 1.50042e-07, No Iterations 1
smoothSolver:  Solving for k, Initial residual = 0.00543035, Final residual = 3.86223e-06, No Iterations 1
ExecutionTime = 86.56 s  ClockTime = 87 s

Time = 1.175

Courant Number mean: 0.0378158 max: 0.29394
smoothSolver:  Solving for Ux, Initial residual = 0.00280143, Final residual = 5.69015e-06, No Iterations 1
smoothSolver:  Solving for Uy, Initial residual = 0.00280154, Final residual = 5.6914e-06, No Iterations 1
smoothSolver:  Solving for Uz, Initial residual = 0.00548785, Final residual = 2.51159e-06, No Iterations 1
DICPCG:  Solving for p, Initial residual = 0.000458419, Final residual = 1.65537e-05, No Iterations 2
time step continuity errors : sum local = 8.91842e-11, global = -4.94723e-12, cumulative = -2.60068e-09
DICPCG:  Solving for p, Initial residual = 3.1835e-05, Final residual = 8.66968e-07, No Iterations 471
time step continuity errors : sum local = 4.67068e-12, global = -1.64637e-13, cumulative = -2.60085e-09
smoothSolver:  Solving for epsilon, Initial residual = 0.000183647, Final residual = 1.49089e-07, No Iterations 1
smoothSolver:  Solving for k, Initial residual = 0.00531792, Final residual = 3.76175e-06, No Iterations 1
ExecutionTime = 89.36 s  ClockTime = 90 s

Time = 1.2

Courant Number mean: 0.0378156 max: 0.293984
smoothSolver:  Solving for Ux, Initial residual = 0.00276872, Final residual = 5.64864e-06, No Iterations 1
smoothSolver:  Solving for Uy, Initial residual = 0.00276885, Final residual = 5.64946e-06, No Iterations 1
smoothSolver:  Solving for Uz, Initial residual = 0.0053807, Final residual = 2.46017e-06, No Iterations 1
DICPCG:  Solving for p, Initial residual = 0.000439237, Final residual = 1.52568e-05, No Iterations 2
time step continuity errors : sum local = 8.22994e-11, global = -4.9946e-12, cumulative = -2.60584e-09
DICPCG:  Solving for p, Initial residual = 3.05432e-05, Final residual = 8.74996e-07, No Iterations 471
time step continuity errors : sum local = 4.71981e-12, global = -1.55963e-13, cumulative = -2.606e-09
smoothSolver:  Solving for epsilon, Initial residual = 0.000181912, Final residual = 1.47453e-07, No Iterations 1
smoothSolver:  Solving for k, Initial residual = 0.00521009, Final residual = 3.67767e-06, No Iterations 1
ExecutionTime = 92.47 s  ClockTime = 93 s

Time = 1.225

Courant Number mean: 0.0378153 max: 0.294017
smoothSolver:  Solving for Ux, Initial residual = 0.00273718, Final residual = 5.59094e-06, No Iterations 1
smoothSolver:  Solving for Uy, Initial residual = 0.00273734, Final residual = 5.59167e-06, No Iterations 1
smoothSolver:  Solving for Uz, Initial residual = 0.00527772, Final residual = 2.41112e-06, No Iterations 1
DICPCG:  Solving for p, Initial residual = 0.000428817, Final residual = 1.47782e-05, No Iterations 2
time step continuity errors : sum local = 7.98163e-11, global = -4.9263e-12, cumulative = -2.61092e-09
DICPCG:  Solving for p, Initial residual = 3.00547e-05, Final residual = 8.9656e-07, No Iterations 471
time step continuity errors : sum local = 4.84214e-12, global = -1.49251e-13, cumulative = -2.61107e-09
smoothSolver:  Solving for epsilon, Initial residual = 0.00018024, Final residual = 1.45871e-07, No Iterations 1
smoothSolver:  Solving for k, Initial residual = 0.00510659, Final residual = 3.57484e-06, No Iterations 1
ExecutionTime = 94.27 s  ClockTime = 95 s

Time = 1.25

Courant Number mean: 0.0378151 max: 0.29404
smoothSolver:  Solving for Ux, Initial residual = 0.00270652, Final residual = 5.53964e-06, No Iterations 1
smoothSolver:  Solving for Uy, Initial residual = 0.00270665, Final residual = 5.54003e-06, No Iterations 1
smoothSolver:  Solving for Uz, Initial residual = 0.0051787, Final residual = 2.3639e-06, No Iterations 1
DICPCG:  Solving for p, Initial residual = 0.000415534, Final residual = 1.50525e-05, No Iterations 2
time step continuity errors : sum local = 8.13979e-11, global = -4.699e-12, cumulative = -2.61577e-09
DICPCG:  Solving for p, Initial residual = 2.97923e-05, Final residual = 8.02066e-07, No Iterations 471
time step continuity errors : sum local = 4.33713e-12, global = -1.44619e-13, cumulative = -2.61592e-09
smoothSolver:  Solving for epsilon, Initial residual = 0.000178622, Final residual = 1.44603e-07, No Iterations 1
smoothSolver:  Solving for k, Initial residual = 0.00500714, Final residual = 3.52532e-06, No Iterations 1
ExecutionTime = 96.56 s  ClockTime = 98 s

Time = 1.275

Courant Number mean: 0.0378148 max: 0.294051
smoothSolver:  Solving for Ux, Initial residual = 0.00267443, Final residual = 5.48531e-06, No Iterations 1
smoothSolver:  Solving for Uy, Initial residual = 0.00267469, Final residual = 5.48592e-06, No Iterations 1
smoothSolver:  Solving for Uz, Initial residual = 0.00508341, Final residual = 2.31853e-06, No Iterations 1
DICPCG:  Solving for p, Initial residual = 0.000408367, Final residual = 1.47785e-05, No Iterations 2
time step continuity errors : sum local = 8.00144e-11, global = -4.55582e-12, cumulative = -2.62047e-09
DICPCG:  Solving for p, Initial residual = 2.95802e-05, Final residual = 9.40413e-07, No Iterations 470
time step continuity errors : sum local = 5.0915e-12, global = -1.51893e-13, cumulative = -2.62063e-09
smoothSolver:  Solving for epsilon, Initial residual = 0.000177041, Final residual = 1.43459e-07, No Iterations 1
smoothSolver:  Solving for k, Initial residual = 0.00491152, Final residual = 3.42609e-06, No Iterations 1
ExecutionTime = 99.08 s  ClockTime = 100 s

Time = 1.3

Courant Number mean: 0.0378146 max: 0.294051
smoothSolver:  Solving for Ux, Initial residual = 0.00264288, Final residual = 5.42255e-06, No Iterations 1
smoothSolver:  Solving for Uy, Initial residual = 0.00264312, Final residual = 5.42361e-06, No Iterations 1
smoothSolver:  Solving for Uz, Initial residual = 0.00499159, Final residual = 2.27473e-06, No Iterations 1
DICPCG:  Solving for p, Initial residual = 0.000401101, Final residual = 1.49503e-05, No Iterations 2
time step continuity errors : sum local = 8.10444e-11, global = -4.42956e-12, cumulative = -2.62505e-09
DICPCG:  Solving for p, Initial residual = 2.95841e-05, Final residual = 9.51217e-07, No Iterations 470
time step continuity errors : sum local = 5.15638e-12, global = -1.39904e-13, cumulative = -2.62519e-09
smoothSolver:  Solving for epsilon, Initial residual = 0.000175457, Final residual = 1.41825e-07, No Iterations 1
smoothSolver:  Solving for k, Initial residual = 0.00481948, Final residual = 3.35455e-06, No Iterations 1
ExecutionTime = 100.97 s  ClockTime = 102 s

Time = 1.325

Courant Number mean: 0.0378143 max: 0.29404
smoothSolver:  Solving for Ux, Initial residual = 0.00261276, Final residual = 5.36078e-06, No Iterations 1
smoothSolver:  Solving for Uy, Initial residual = 0.00261307, Final residual = 5.36158e-06, No Iterations 1
smoothSolver:  Solving for Uz, Initial residual = 0.00490309, Final residual = 2.23271e-06, No Iterations 1
DICPCG:  Solving for p, Initial residual = 0.00039307, Final residual = 1.39055e-05, No Iterations 2
time step continuity errors : sum local = 7.54729e-11, global = -4.05308e-12, cumulative = -2.62925e-09
DICPCG:  Solving for p, Initial residual = 2.86542e-05, Final residual = 9.14174e-07, No Iterations 470
time step continuity errors : sum local = 4.96163e-12, global = -1.23976e-13, cumulative = -2.62937e-09
smoothSolver:  Solving for epsilon, Initial residual = 0.000173926, Final residual = 1.41257e-07, No Iterations 1
smoothSolver:  Solving for k, Initial residual = 0.00473084, Final residual = 3.28573e-06, No Iterations 1
ExecutionTime = 103.92 s  ClockTime = 105 s

Time = 1.35

Courant Number mean: 0.0378141 max: 0.29402
smoothSolver:  Solving for Ux, Initial residual = 0.00258379, Final residual = 5.28695e-06, No Iterations 1
smoothSolver:  Solving for Uy, Initial residual = 0.00258399, Final residual = 5.28735e-06, No Iterations 1
smoothSolver:  Solving for Uz, Initial residual = 0.00481772, Final residual = 2.19234e-06, No Iterations 1
DICPCG:  Solving for p, Initial residual = 0.000390154, Final residual = 1.31562e-05, No Iterations 2
time step continuity errors : sum local = 7.14923e-11, global = -3.37003e-12, cumulative = -2.63274e-09
DICPCG:  Solving for p, Initial residual = 2.82206e-05, Final residual = 8.50618e-07, No Iterations 470
time step continuity errors : sum local = 4.62225e-12, global = -1.15208e-13, cumulative = -2.63286e-09
smoothSolver:  Solving for epsilon, Initial residual = 0.000172421, Final residual = 1.39594e-07, No Iterations 1
smoothSolver:  Solving for k, Initial residual = 0.00464539, Final residual = 3.22504e-06, No Iterations 1
ExecutionTime = 108.55 s  ClockTime = 110 s

Time = 1.375

Courant Number mean: 0.0378138 max: 0.29399
smoothSolver:  Solving for Ux, Initial residual = 0.00255563, Final residual = 5.20624e-06, No Iterations 1
smoothSolver:  Solving for Uy, Initial residual = 0.0025559, Final residual = 5.20644e-06, No Iterations 1
smoothSolver:  Solving for Uz, Initial residual = 0.0047353, Final residual = 2.15333e-06, No Iterations 1
DICPCG:  Solving for p, Initial residual = 0.000391526, Final residual = 1.37159e-05, No Iterations 2
time step continuity errors : sum local = 7.46229e-11, global = -3.14969e-12, cumulative = -2.63601e-09
DICPCG:  Solving for p, Initial residual = 2.88557e-05, Final residual = 8.36385e-07, No Iterations 470
time step continuity errors : sum local = 4.55031e-12, global = -1.17169e-13, cumulative = -2.63612e-09
smoothSolver:  Solving for epsilon, Initial residual = 0.00017095, Final residual = 1.38171e-07, No Iterations 1
smoothSolver:  Solving for k, Initial residual = 0.00456298, Final residual = 3.15304e-06, No Iterations 1
ExecutionTime = 113.69 s  ClockTime = 115 s

Time = 1.4

Courant Number mean: 0.0378136 max: 0.293952
smoothSolver:  Solving for Ux, Initial residual = 0.0025297, Final residual = 5.11659e-06, No Iterations 1
smoothSolver:  Solving for Uy, Initial residual = 0.00252989, Final residual = 5.11677e-06, No Iterations 1
smoothSolver:  Solving for Uz, Initial residual = 0.00465569, Final residual = 2.11581e-06, No Iterations 1
DICPCG:  Solving for p, Initial residual = 0.000379968, Final residual = 1.30435e-05, No Iterations 2
time step continuity errors : sum local = 7.10495e-11, global = -3.02648e-12, cumulative = -2.63915e-09
DICPCG:  Solving for p, Initial residual = 2.81498e-05, Final residual = 9.75374e-07, No Iterations 469
time step continuity errors : sum local = 5.31288e-12, global = -1.23517e-13, cumulative = -2.63927e-09
smoothSolver:  Solving for epsilon, Initial residual = 0.000169504, Final residual = 1.37039e-07, No Iterations 1
smoothSolver:  Solving for k, Initial residual = 0.00448345, Final residual = 3.08872e-06, No Iterations 1
ExecutionTime = 118.73 s  ClockTime = 120 s

Time = 1.425

Courant Number mean: 0.0378133 max: 0.293908
smoothSolver:  Solving for Ux, Initial residual = 0.00250325, Final residual = 5.03117e-06, No Iterations 1
smoothSolver:  Solving for Uy, Initial residual = 0.00250341, Final residual = 5.03174e-06, No Iterations 1
smoothSolver:  Solving for Uz, Initial residual = 0.00457873, Final residual = 2.07966e-06, No Iterations 1
DICPCG:  Solving for p, Initial residual = 0.000370747, Final residual = 1.3493e-05, No Iterations 2
time step continuity errors : sum local = 7.35865e-11, global = -2.98805e-12, cumulative = -2.64226e-09
DICPCG:  Solving for p, Initial residual = 2.83877e-05, Final residual = 9.758e-07, No Iterations 469
time step continuity errors : sum local = 5.32167e-12, global = -1.14779e-13, cumulative = -2.64238e-09
smoothSolver:  Solving for epsilon, Initial residual = 0.00016813, Final residual = 1.35111e-07, No Iterations 1
smoothSolver:  Solving for k, Initial residual = 0.00440662, Final residual = 2.99663e-06, No Iterations 1
ExecutionTime = 123.38 s  ClockTime = 125 s

Time = 1.45

Courant Number mean: 0.0378131 max: 0.293858
smoothSolver:  Solving for Ux, Initial residual = 0.00247682, Final residual = 4.92703e-06, No Iterations 1
smoothSolver:  Solving for Uy, Initial residual = 0.00247695, Final residual = 4.92728e-06, No Iterations 1
smoothSolver:  Solving for Uz, Initial residual = 0.00450429, Final residual = 2.04474e-06, No Iterations 1
DICPCG:  Solving for p, Initial residual = 0.000360056, Final residual = 1.34122e-05, No Iterations 2
time step continuity errors : sum local = 7.32347e-11, global = -1.98023e-12, cumulative = -2.64436e-09
DICPCG:  Solving for p, Initial residual = 2.82132e-05, Final residual = 9.69894e-07, No Iterations 468
time step continuity errors : sum local = 5.29589e-12, global = -1.34548e-13, cumulative = -2.64449e-09
smoothSolver:  Solving for epsilon, Initial residual = 0.000166703, Final residual = 1.33717e-07, No Iterations 1
smoothSolver:  Solving for k, Initial residual = 0.00433235, Final residual = 2.96983e-06, No Iterations 1
ExecutionTime = 128.27 s  ClockTime = 130 s

Time = 1.475

Courant Number mean: 0.0378128 max: 0.293804
smoothSolver:  Solving for Ux, Initial residual = 0.00245209, Final residual = 4.8251e-06, No Iterations 1
smoothSolver:  Solving for Uy, Initial residual = 0.0024522, Final residual = 4.8255e-06, No Iterations 1
smoothSolver:  Solving for Uz, Initial residual = 0.00443226, Final residual = 2.01071e-06, No Iterations 1
DICPCG:  Solving for p, Initial residual = 0.000356201, Final residual = 1.33838e-05, No Iterations 2
time step continuity errors : sum local = 7.31679e-11, global = -1.35486e-12, cumulative = -2.64585e-09
DICPCG:  Solving for p, Initial residual = 2.82396e-05, Final residual = 9.96237e-07, No Iterations 467
time step continuity errors : sum local = 5.44631e-12, global = -1.67575e-13, cumulative = -2.64601e-09
smoothSolver:  Solving for epsilon, Initial residual = 0.000165347, Final residual = 1.32415e-07, No Iterations 1
smoothSolver:  Solving for k, Initial residual = 0.0042605, Final residual = 2.919e-06, No Iterations 1
ExecutionTime = 132.96 s  ClockTime = 135 s

Time = 1.5

Courant Number mean: 0.0378126 max: 0.293748
smoothSolver:  Solving for Ux, Initial residual = 0.0024279, Final residual = 4.71643e-06, No Iterations 1
smoothSolver:  Solving for Uy, Initial residual = 0.00242801, Final residual = 4.71709e-06, No Iterations 1
smoothSolver:  Solving for Uz, Initial residual = 0.00436253, Final residual = 1.97775e-06, No Iterations 1
DICPCG:  Solving for p, Initial residual = 0.000351365, Final residual = 1.29373e-05, No Iterations 2
time step continuity errors : sum local = 7.08112e-11, global = -9.59977e-13, cumulative = -2.64697e-09
DICPCG:  Solving for p, Initial residual = 2.74164e-05, Final residual = 8.73478e-07, No Iterations 467
time step continuity errors : sum local = 4.78087e-12, global = -1.30477e-13, cumulative = -2.6471e-09
smoothSolver:  Solving for epsilon, Initial residual = 0.00016403, Final residual = 1.3032e-07, No Iterations 1
smoothSolver:  Solving for k, Initial residual = 0.00419098, Final residual = 2.85314e-06, No Iterations 1
ExecutionTime = 137.75 s  ClockTime = 140 s

Time = 1.525

Courant Number mean: 0.0378124 max: 0.293689
smoothSolver:  Solving for Ux, Initial residual = 0.00240536, Final residual = 4.62268e-06, No Iterations 1
smoothSolver:  Solving for Uy, Initial residual = 0.00240544, Final residual = 4.62306e-06, No Iterations 1
smoothSolver:  Solving for Uz, Initial residual = 0.00429498, Final residual = 1.94586e-06, No Iterations 1
DICPCG:  Solving for p, Initial residual = 0.000346044, Final residual = 1.33438e-05, No Iterations 2
time step continuity errors : sum local = 7.31226e-11, global = -6.78631e-13, cumulative = -2.64778e-09
DICPCG:  Solving for p, Initial residual = 2.78797e-05, Final residual = 9.07633e-07, No Iterations 466
time step continuity errors : sum local = 4.97368e-12, global = -1.43613e-13, cumulative = -2.64793e-09
smoothSolver:  Solving for epsilon, Initial residual = 0.000162723, Final residual = 1.29944e-07, No Iterations 1
smoothSolver:  Solving for k, Initial residual = 0.00412369, Final residual = 2.7914e-06, No Iterations 1
ExecutionTime = 142.33 s  ClockTime = 144 s

Time = 1.55

Courant Number mean: 0.0378121 max: 0.293631
smoothSolver:  Solving for Ux, Initial residual = 0.00238391, Final residual = 4.5357e-06, No Iterations 1
smoothSolver:  Solving for Uy, Initial residual = 0.00238402, Final residual = 4.536e-06, No Iterations 1
smoothSolver:  Solving for Uz, Initial residual = 0.00422953, Final residual = 1.91508e-06, No Iterations 1
DICPCG:  Solving for p, Initial residual = 0.000340126, Final residual = 1.35638e-05, No Iterations 2
time step continuity errors : sum local = 7.44163e-11, global = -4.22683e-14, cumulative = -2.64797e-09
DICPCG:  Solving for p, Initial residual = 2.75726e-05, Final residual = 9.22033e-07, No Iterations 467
time step continuity errors : sum local = 5.05865e-12, global = -1.65387e-13, cumulative = -2.64813e-09
smoothSolver:  Solving for epsilon, Initial residual = 0.000161438, Final residual = 1.28889e-07, No Iterations 1
smoothSolver:  Solving for k, Initial residual = 0.00405852, Final residual = 2.77236e-06, No Iterations 1
ExecutionTime = 146.74 s  ClockTime = 149 s

Time = 1.575

Courant Number mean: 0.0378119 max: 0.293573
smoothSolver:  Solving for Ux, Initial residual = 0.00236226, Final residual = 4.44412e-06, No Iterations 1
smoothSolver:  Solving for Uy, Initial residual = 0.00236252, Final residual = 4.44505e-06, No Iterations 1
smoothSolver:  Solving for Uz, Initial residual = 0.00416607, Final residual = 1.88506e-06, No Iterations 1
DICPCG:  Solving for p, Initial residual = 0.000350928, Final residual = 1.32675e-05, No Iterations 2
time step continuity errors : sum local = 7.28771e-11, global = 1.84133e-13, cumulative = -2.64795e-09
DICPCG:  Solving for p, Initial residual = 2.81168e-05, Final residual = 9.72814e-07, No Iterations 465
time step continuity errors : sum local = 5.34356e-12, global = -1.40132e-13, cumulative = -2.64809e-09
smoothSolver:  Solving for epsilon, Initial residual = 0.000160211, Final residual = 1.28266e-07, No Iterations 1
smoothSolver:  Solving for k, Initial residual = 0.00399536, Final residual = 2.70571e-06, No Iterations 1
ExecutionTime = 151.11 s  ClockTime = 153 s

Time = 1.6

Courant Number mean: 0.0378116 max: 0.293517
smoothSolver:  Solving for Ux, Initial residual = 0.00234227, Final residual = 4.34205e-06, No Iterations 1
smoothSolver:  Solving for Uy, Initial residual = 0.00234248, Final residual = 4.34249e-06, No Iterations 1
smoothSolver:  Solving for Uz, Initial residual = 0.00410451, Final residual = 1.85582e-06, No Iterations 1
DICPCG:  Solving for p, Initial residual = 0.000330951, Final residual = 1.29121e-05, No Iterations 2
time step continuity errors : sum local = 7.10077e-11, global = 1.09573e-12, cumulative = -2.64699e-09
DICPCG:  Solving for p, Initial residual = 2.64631e-05, Final residual = 8.79614e-07, No Iterations 466
time step continuity errors : sum local = 4.83727e-12, global = -8.08609e-14, cumulative = -2.64708e-09
smoothSolver:  Solving for epsilon, Initial residual = 0.000158984, Final residual = 1.26667e-07, No Iterations 1
smoothSolver:  Solving for k, Initial residual = 0.00393413, Final residual = 2.66339e-06, No Iterations 1
ExecutionTime = 155.77 s  ClockTime = 158 s

Time = 1.625

Courant Number mean: 0.0378114 max: 0.293464
smoothSolver:  Solving for Ux, Initial residual = 0.00232167, Final residual = 4.24689e-06, No Iterations 1
smoothSolver:  Solving for Uy, Initial residual = 0.00232191, Final residual = 4.24772e-06, No Iterations 1
smoothSolver:  Solving for Uz, Initial residual = 0.00404476, Final residual = 1.82779e-06, No Iterations 1
DICPCG:  Solving for p, Initial residual = 0.000338939, Final residual = 1.30194e-05, No Iterations 2
time step continuity errors : sum local = 7.16811e-11, global = 6.9777e-13, cumulative = -2.64638e-09
DICPCG:  Solving for p, Initial residual = 2.70793e-05, Final residual = 9.92923e-07, No Iterations 464
time step continuity errors : sum local = 5.46672e-12, global = -1.21957e-14, cumulative = -2.64639e-09
smoothSolver:  Solving for epsilon, Initial residual = 0.000157784, Final residual = 1.25678e-07, No Iterations 1
smoothSolver:  Solving for k, Initial residual = 0.00387474, Final residual = 2.61828e-06, No Iterations 1
ExecutionTime = 160.81 s  ClockTime = 163 s

Time = 1.65

Courant Number mean: 0.0378111 max: 0.293415
smoothSolver:  Solving for Ux, Initial residual = 0.00230047, Final residual = 4.16284e-06, No Iterations 1
smoothSolver:  Solving for Uy, Initial residual = 0.00230061, Final residual = 4.16318e-06, No Iterations 1
smoothSolver:  Solving for Uz, Initial residual = 0.00398694, Final residual = 1.80079e-06, No Iterations 1
DICPCG:  Solving for p, Initial residual = 0.000335239, Final residual = 1.35387e-05, No Iterations 2
time step continuity errors : sum local = 7.46264e-11, global = 9.10664e-13, cumulative = -2.64548e-09
DICPCG:  Solving for p, Initial residual = 2.75017e-05, Final residual = 8.21678e-07, No Iterations 466
time step continuity errors : sum local = 4.52918e-12, global = -5.34073e-14, cumulative = -2.64553e-09
smoothSolver:  Solving for epsilon, Initial residual = 0.00015663, Final residual = 1.24492e-07, No Iterations 1
smoothSolver:  Solving for k, Initial residual = 0.00381709, Final residual = 2.56785e-06, No Iterations 1
ExecutionTime = 165.65 s  ClockTime = 168 s

Time = 1.675

Courant Number mean: 0.0378109 max: 0.29337
smoothSolver:  Solving for Ux, Initial residual = 0.00228207, Final residual = 4.07916e-06, No Iterations 1
smoothSolver:  Solving for Uy, Initial residual = 0.00228222, Final residual = 4.0797e-06, No Iterations 1
smoothSolver:  Solving for Uz, Initial residual = 0.00393108, Final residual = 1.77471e-06, No Iterations 1
DICPCG:  Solving for p, Initial residual = 0.000327765, Final residual = 1.27345e-05, No Iterations 2
time step continuity errors : sum local = 7.02741e-11, global = 3.53532e-13, cumulative = -2.64518e-09
DICPCG:  Solving for p, Initial residual = 2.63481e-05, Final residual = 9.99528e-07, No Iterations 466
time step continuity errors : sum local = 5.51576e-12, global = -1.90841e-14, cumulative = -2.6452e-09
smoothSolver:  Solving for epsilon, Initial residual = 0.000155441, Final residual = 1.23281e-07, No Iterations 1
smoothSolver:  Solving for k, Initial residual = 0.00376109, Final residual = 2.5515e-06, No Iterations 1
ExecutionTime = 169.91 s  ClockTime = 173 s

Time = 1.7

Courant Number mean: 0.0378106 max: 0.29333
smoothSolver:  Solving for Ux, Initial residual = 0.0022627, Final residual = 3.99914e-06, No Iterations 1
smoothSolver:  Solving for Uy, Initial residual = 0.00226288, Final residual = 4.00016e-06, No Iterations 1
smoothSolver:  Solving for Uz, Initial residual = 0.0038768, Final residual = 1.74923e-06, No Iterations 1
DICPCG:  Solving for p, Initial residual = 0.000324458, Final residual = 1.3252e-05, No Iterations 2
time step continuity errors : sum local = 7.32128e-11, global = 1.22213e-12, cumulative = -2.64398e-09
DICPCG:  Solving for p, Initial residual = 2.69286e-05, Final residual = 8.89331e-07, No Iterations 466
time step continuity errors : sum local = 4.91321e-12, global = -1.36272e-13, cumulative = -2.64411e-09
smoothSolver:  Solving for epsilon, Initial residual = 0.000154343, Final residual = 1.21943e-07, No Iterations 1
smoothSolver:  Solving for k, Initial residual = 0.00370669, Final residual = 2.48066e-06, No Iterations 1
ExecutionTime = 174.25 s  ClockTime = 177 s

Time = 1.725

Courant Number mean: 0.0378104 max: 0.293295
smoothSolver:  Solving for Ux, Initial residual = 0.00224408, Final residual = 3.93666e-06, No Iterations 1
smoothSolver:  Solving for Uy, Initial residual = 0.00224431, Final residual = 3.93765e-06, No Iterations 1
smoothSolver:  Solving for Uz, Initial residual = 0.00382404, Final residual = 1.72427e-06, No Iterations 1
DICPCG:  Solving for p, Initial residual = 0.000301914, Final residual = 1.24038e-05, No Iterations 2
time step continuity errors : sum local = 6.8605e-11, global = 9.0945e-13, cumulative = -2.6432e-09
DICPCG:  Solving for p, Initial residual = 2.52773e-05, Final residual = 8.10578e-07, No Iterations 466
time step continuity errors : sum local = 4.48336e-12, global = -2.35359e-14, cumulative = -2.64323e-09
smoothSolver:  Solving for epsilon, Initial residual = 0.000153195, Final residual = 1.20908e-07, No Iterations 1
smoothSolver:  Solving for k, Initial residual = 0.0036538, Final residual = 2.46372e-06, No Iterations 1
ExecutionTime = 178.51 s  ClockTime = 181 s

Time = 1.75

Courant Number mean: 0.0378101 max: 0.293265
smoothSolver:  Solving for Ux, Initial residual = 0.00222641, Final residual = 3.88375e-06, No Iterations 1
smoothSolver:  Solving for Uy, Initial residual = 0.00222658, Final residual = 3.88438e-06, No Iterations 1
smoothSolver:  Solving for Uz, Initial residual = 0.00377276, Final residual = 1.69992e-06, No Iterations 1
DICPCG:  Solving for p, Initial residual = 0.000297344, Final residual = 1.24744e-05, No Iterations 2
time step continuity errors : sum local = 6.9075e-11, global = 7.79091e-13, cumulative = -2.64245e-09
DICPCG:  Solving for p, Initial residual = 2.51876e-05, Final residual = 8.55595e-07, No Iterations 464
time step continuity errors : sum local = 4.73779e-12, global = -9.38146e-14, cumulative = -2.64254e-09
smoothSolver:  Solving for epsilon, Initial residual = 0.00015213, Final residual = 1.19632e-07, No Iterations 1
smoothSolver:  Solving for k, Initial residual = 0.00360235, Final residual = 2.40659e-06, No Iterations 1
ExecutionTime = 182.97 s  ClockTime = 186 s

Time = 1.775

Courant Number mean: 0.0378099 max: 0.29324
smoothSolver:  Solving for Ux, Initial residual = 0.00220977, Final residual = 3.8274e-06, No Iterations 1
smoothSolver:  Solving for Uy, Initial residual = 0.00220978, Final residual = 3.82797e-06, No Iterations 1
smoothSolver:  Solving for Uz, Initial residual = 0.00372288, Final residual = 1.67622e-06, No Iterations 1
DICPCG:  Solving for p, Initial residual = 0.000295704, Final residual = 1.27345e-05, No Iterations 2
time step continuity errors : sum local = 7.0596e-11, global = -2.08967e-14, cumulative = -2.64256e-09
DICPCG:  Solving for p, Initial residual = 2.51786e-05, Final residual = 8.46461e-07, No Iterations 466
time step continuity errors : sum local = 4.69255e-12, global = -2.28712e-14, cumulative = -2.64258e-09
smoothSolver:  Solving for epsilon, Initial residual = 0.000151022, Final residual = 1.18398e-07, No Iterations 1
smoothSolver:  Solving for k, Initial residual = 0.00355229, Final residual = 2.39571e-06, No Iterations 1
ExecutionTime = 187.68 s  ClockTime = 191 s

Time = 1.8

Courant Number mean: 0.0378096 max: 0.29322
smoothSolver:  Solving for Ux, Initial residual = 0.0021937, Final residual = 3.76865e-06, No Iterations 1
smoothSolver:  Solving for Uy, Initial residual = 0.00219385, Final residual = 3.76905e-06, No Iterations 1
smoothSolver:  Solving for Uz, Initial residual = 0.00367433, Final residual = 1.65315e-06, No Iterations 1
DICPCG:  Solving for p, Initial residual = 0.000285055, Final residual = 1.2495e-05, No Iterations 2
time step continuity errors : sum local = 6.93469e-11, global = -2.51915e-13, cumulative = -2.64284e-09
DICPCG:  Solving for p, Initial residual = 2.4367e-05, Final residual = 9.55015e-07, No Iterations 466
time step continuity errors : sum local = 5.30037e-12, global = -1.8617e-14, cumulative = -2.64286e-09
smoothSolver:  Solving for epsilon, Initial residual = 0.00014999, Final residual = 1.17085e-07, No Iterations 1
smoothSolver:  Solving for k, Initial residual = 0.00350357, Final residual = 2.33287e-06, No Iterations 1
ExecutionTime = 192.65 s  ClockTime = 196 s

Time = 1.825

Courant Number mean: 0.0378094 max: 0.293206
smoothSolver:  Solving for Ux, Initial residual = 0.00217762, Final residual = 3.7079e-06, No Iterations 1
smoothSolver:  Solving for Uy, Initial residual = 0.00217779, Final residual = 3.70859e-06, No Iterations 1
smoothSolver:  Solving for Uz, Initial residual = 0.00362707, Final residual = 1.63065e-06, No Iterations 1
DICPCG:  Solving for p, Initial residual = 0.000280607, Final residual = 1.24162e-05, No Iterations 2
time step continuity errors : sum local = 6.89877e-11, global = -3.33685e-13, cumulative = -2.64319e-09
DICPCG:  Solving for p, Initial residual = 2.43844e-05, Final residual = 9.61643e-07, No Iterations 466
time step continuity errors : sum local = 5.34324e-12, global = -1.04213e-13, cumulative = -2.64329e-09
smoothSolver:  Solving for epsilon, Initial residual = 0.000148914, Final residual = 1.16341e-07, No Iterations 1
smoothSolver:  Solving for k, Initial residual = 0.00345611, Final residual = 2.31935e-06, No Iterations 1
ExecutionTime = 197.92 s  ClockTime = 201 s

Time = 1.85

Courant Number mean: 0.0378091 max: 0.293196
smoothSolver:  Solving for Ux, Initial residual = 0.00216221, Final residual = 3.64843e-06, No Iterations 1
smoothSolver:  Solving for Uy, Initial residual = 0.00216233, Final residual = 3.649e-06, No Iterations 1
smoothSolver:  Solving for Uz, Initial residual = 0.00358103, Final residual = 1.60868e-06, No Iterations 1
DICPCG:  Solving for p, Initial residual = 0.000273691, Final residual = 1.23243e-05, No Iterations 2
time step continuity errors : sum local = 6.85551e-11, global = -7.49143e-13, cumulative = -2.64404e-09
DICPCG:  Solving for p, Initial residual = 2.40372e-05, Final residual = 8.95209e-07, No Iterations 468
time step continuity errors : sum local = 4.97978e-12, global = -1.11429e-13, cumulative = -2.64415e-09
smoothSolver:  Solving for epsilon, Initial residual = 0.000147908, Final residual = 1.1477e-07, No Iterations 1
[...]
time step continuity errors : sum local = 4.7143e-12, global = 1.52023e-13, cumulative = -2.30245e-09
smoothSolver:  Solving for epsilon, Initial residual = 1.78985e-05, Final residual = 1.31483e-08, No Iterations 1
smoothSolver:  Solving for k, Initial residual = 9.37743e-05, Final residual = 6.00535e-08, No Iterations 1
ExecutionTime = 2635.51 s  ClockTime = 2666 s

Time = 68.475

Courant Number mean: 0.0372257 max: 0.293317
smoothSolver:  Solving for Ux, Initial residual = 0.00010946, Final residual = 3.65363e-08, No Iterations 1
smoothSolver:  Solving for Uy, Initial residual = 0.000109466, Final residual = 3.65298e-08, No Iterations 1
smoothSolver:  Solving for Uz, Initial residual = 8.11916e-05, Final residual = 3.2788e-08, No Iterations 1
DICPCG:  Solving for p, Initial residual = 7.41949e-06, Final residual = 9.57303e-07, No Iterations 6
time step continuity errors : sum local = 5.04539e-12, global = 2.26238e-13, cumulative = -2.30222e-09
DICPCG:  Solving for p, Initial residual = 2.46575e-06, Final residual = 9.87199e-07, No Iterations 1
time step continuity errors : sum local = 5.20295e-12, global = 3.92831e-13, cumulative = -2.30183e-09
smoothSolver:  Solving for epsilon, Initial residual = 1.78929e-05, Final residual = 1.31449e-08, No Iterations 1
smoothSolver:  Solving for k, Initial residual = 9.37367e-05, Final residual = 6.00263e-08, No Iterations 1
ExecutionTime = 2635.86 s  ClockTime = 2666 s

Time = 68.5

Courant Number mean: 0.0372256 max: 0.293317
smoothSolver:  Solving for Ux, Initial residual = 0.000109459, Final residual = 3.65288e-08, No Iterations 1
smoothSolver:  Solving for Uy, Initial residual = 0.000109463, Final residual = 3.65383e-08, No Iterations 1
smoothSolver:  Solving for Uz, Initial residual = 8.11555e-05, Final residual = 3.27743e-08, No Iterations 1
DICPCG:  Solving for p, Initial residual = 6.93515e-06, Final residual = 9.59387e-07, No Iterations 430
time step continuity errors : sum local = 5.05638e-12, global = -3.73015e-15, cumulative = -2.30183e-09
DICPCG:  Solving for p, Initial residual = 2.47276e-06, Final residual = 9.03546e-07, No Iterations 1
time step continuity errors : sum local = 4.75958e-12, global = 1.48576e-13, cumulative = -2.30168e-09
smoothSolver:  Solving for epsilon, Initial residual = 1.78873e-05, Final residual = 1.31399e-08, No Iterations 1
smoothSolver:  Solving for k, Initial residual = 9.3699e-05, Final residual = 6.00275e-08, No Iterations 1
ExecutionTime = 2637.39 s  ClockTime = 2668 s

Time = 68.525

Courant Number mean: 0.0372254 max: 0.293317
smoothSolver:  Solving for Ux, Initial residual = 0.000109042, Final residual = 3.63218e-08, No Iterations 1
smoothSolver:  Solving for Uy, Initial residual = 0.000109044, Final residual = 3.63182e-08, No Iterations 1
smoothSolver:  Solving for Uz, Initial residual = 8.11144e-05, Final residual = 3.27607e-08, No Iterations 1
DICPCG:  Solving for p, Initial residual = 7.12298e-06, Final residual = 9.99097e-07, No Iterations 59
time step continuity errors : sum local = 5.26292e-12, global = -3.63557e-13, cumulative = -2.30205e-09
DICPCG:  Solving for p, Initial residual = 2.51413e-06, Final residual = 9.75407e-07, No Iterations 1
time step continuity errors : sum local = 5.13815e-12, global = -1.98732e-13, cumulative = -2.30225e-09
smoothSolver:  Solving for epsilon, Initial residual = 1.78818e-05, Final residual = 1.31372e-08, No Iterations 1
smoothSolver:  Solving for k, Initial residual = 9.36613e-05, Final residual = 6.00018e-08, No Iterations 1
ExecutionTime = 2637.89 s  ClockTime = 2668 s

Time = 68.55

Courant Number mean: 0.0372252 max: 0.293317
smoothSolver:  Solving for Ux, Initial residual = 0.000109023, Final residual = 3.62911e-08, No Iterations 1
smoothSolver:  Solving for Uy, Initial residual = 0.000109036, Final residual = 3.63043e-08, No Iterations 1
smoothSolver:  Solving for Uz, Initial residual = 8.10781e-05, Final residual = 3.27469e-08, No Iterations 1
DICPCG:  Solving for p, Initial residual = 6.84439e-06, Final residual = 9.8896e-07, No Iterations 42
time step continuity errors : sum local = 5.20955e-12, global = -1.61226e-13, cumulative = -2.30241e-09
DICPCG:  Solving for p, Initial residual = 2.52291e-06, Final residual = 9.77281e-07, No Iterations 1
time step continuity errors : sum local = 5.14804e-12, global = 1.48591e-14, cumulative = -2.30239e-09
smoothSolver:  Solving for epsilon, Initial residual = 1.78762e-05, Final residual = 1.31339e-08, No Iterations 1
smoothSolver:  Solving for k, Initial residual = 9.36235e-05, Final residual = 5.99813e-08, No Iterations 1
ExecutionTime = 2638.33 s  ClockTime = 2669 s

Time = 68.575

Courant Number mean: 0.0372251 max: 0.293317
smoothSolver:  Solving for Ux, Initial residual = 0.000108979, Final residual = 3.62901e-08, No Iterations 1
smoothSolver:  Solving for Uy, Initial residual = 0.000108988, Final residual = 3.62855e-08, No Iterations 1
smoothSolver:  Solving for Uz, Initial residual = 8.10423e-05, Final residual = 3.27333e-08, No Iterations 1
DICPCG:  Solving for p, Initial residual = 6.96813e-06, Final residual = 9.53223e-07, No Iterations 368
time step continuity errors : sum local = 5.02131e-12, global = 2.16474e-13, cumulative = -2.30218e-09
DICPCG:  Solving for p, Initial residual = 2.4724e-06, Final residual = 8.93061e-07, No Iterations 1
time step continuity errors : sum local = 4.70679e-12, global = 3.80403e-13, cumulative = -2.3018e-09
smoothSolver:  Solving for epsilon, Initial residual = 1.78706e-05, Final residual = 1.31318e-08, No Iterations 1
smoothSolver:  Solving for k, Initial residual = 9.35857e-05, Final residual = 5.99752e-08, No Iterations 1
ExecutionTime = 2639.61 s  ClockTime = 2670 s

Time = 68.6

Courant Number mean: 0.0372249 max: 0.293317
smoothSolver:  Solving for Ux, Initial residual = 0.000109327, Final residual = 3.6471e-08, No Iterations 1
smoothSolver:  Solving for Uy, Initial residual = 0.000109337, Final residual = 3.64839e-08, No Iterations 1
smoothSolver:  Solving for Uz, Initial residual = 8.10127e-05, Final residual = 3.27196e-08, No Iterations 1
DICPCG:  Solving for p, Initial residual = 6.91585e-06, Final residual = 9.53186e-07, No Iterations 413
time step continuity errors : sum local = 5.02368e-12, global = -5.11312e-14, cumulative = -2.30185e-09
DICPCG:  Solving for p, Initial residual = 2.46292e-06, Final residual = 8.95133e-07, No Iterations 1
time step continuity errors : sum local = 4.71606e-12, global = 9.45942e-14, cumulative = -2.30175e-09
smoothSolver:  Solving for epsilon, Initial residual = 1.7865e-05, Final residual = 1.31293e-08, No Iterations 1
smoothSolver:  Solving for k, Initial residual = 9.35478e-05, Final residual = 5.99421e-08, No Iterations 1
ExecutionTime = 2641 s  ClockTime = 2672 s

Time = 68.625

Courant Number mean: 0.0372247 max: 0.293317
smoothSolver:  Solving for Ux, Initial residual = 0.000109023, Final residual = 3.63235e-08, No Iterations 1
smoothSolver:  Solving for Uy, Initial residual = 0.00010902, Final residual = 3.63217e-08, No Iterations 1
smoothSolver:  Solving for Uz, Initial residual = 8.0972e-05, Final residual = 3.27059e-08, No Iterations 1
DICPCG:  Solving for p, Initial residual = 6.68398e-06, Final residual = 9.9375e-07, No Iterations 54
time step continuity errors : sum local = 5.23563e-12, global = 2.63539e-13, cumulative = -2.30149e-09
DICPCG:  Solving for p, Initial residual = 2.50511e-06, Final residual = 9.72233e-07, No Iterations 1
time step continuity errors : sum local = 5.12229e-12, global = 4.41634e-13, cumulative = -2.30105e-09
smoothSolver:  Solving for epsilon, Initial residual = 1.78594e-05, Final residual = 1.31273e-08, No Iterations 1
smoothSolver:  Solving for k, Initial residual = 9.35099e-05, Final residual = 5.99375e-08, No Iterations 1
ExecutionTime = 2641.44 s  ClockTime = 2672 s

Time = 68.65

Courant Number mean: 0.0372246 max: 0.293317
smoothSolver:  Solving for Ux, Initial residual = 0.000108977, Final residual = 3.62792e-08, No Iterations 1
smoothSolver:  Solving for Uy, Initial residual = 0.000108977, Final residual = 3.62901e-08, No Iterations 1
smoothSolver:  Solving for Uz, Initial residual = 8.09361e-05, Final residual = 3.2692e-08, No Iterations 1
DICPCG:  Solving for p, Initial residual = 6.8452e-06, Final residual = 9.91374e-07, No Iterations 21
time step continuity errors : sum local = 5.22314e-12, global = 4.42542e-13, cumulative = -2.3006e-09
DICPCG:  Solving for p, Initial residual = 2.48883e-06, Final residual = 8.00153e-07, No Iterations 2
time step continuity errors : sum local = 4.21568e-12, global = 5.10413e-13, cumulative = -2.30009e-09
smoothSolver:  Solving for epsilon, Initial residual = 1.78538e-05, Final residual = 1.31237e-08, No Iterations 1
smoothSolver:  Solving for k, Initial residual = 9.34719e-05, Final residual = 5.99193e-08, No Iterations 1
ExecutionTime = 2641.82 s  ClockTime = 2672 s

Time = 68.675

Courant Number mean: 0.0372244 max: 0.293317
smoothSolver:  Solving for Ux, Initial residual = 0.000108939, Final residual = 3.62935e-08, No Iterations 1
smoothSolver:  Solving for Uy, Initial residual = 0.00010894, Final residual = 3.62982e-08, No Iterations 1
smoothSolver:  Solving for Uz, Initial residual = 8.09002e-05, Final residual = 3.26787e-08, No Iterations 1
DICPCG:  Solving for p, Initial residual = 7.20602e-06, Final residual = 9.98532e-07, No Iterations 113
time step continuity errors : sum local = 5.26086e-12, global = 5.05586e-13, cumulative = -2.29959e-09
DICPCG:  Solving for p, Initial residual = 2.5027e-06, Final residual = 9.55489e-07, No Iterations 1
time step continuity errors : sum local = 5.03403e-12, global = 6.55375e-13, cumulative = -2.29893e-09
smoothSolver:  Solving for epsilon, Initial residual = 1.78482e-05, Final residual = 1.31217e-08, No Iterations 1
smoothSolver:  Solving for k, Initial residual = 9.3434e-05, Final residual = 5.98997e-08, No Iterations 1
ExecutionTime = 2642.44 s  ClockTime = 2673 s

Time = 68.7

Courant Number mean: 0.0372243 max: 0.293317
smoothSolver:  Solving for Ux, Initial residual = 0.000108913, Final residual = 3.62614e-08, No Iterations 1
smoothSolver:  Solving for Uy, Initial residual = 0.000108911, Final residual = 3.62742e-08, No Iterations 1
smoothSolver:  Solving for Uz, Initial residual = 8.08649e-05, Final residual = 3.26649e-08, No Iterations 1
DICPCG:  Solving for p, Initial residual = 7.05787e-06, Final residual = 9.7115e-07, No Iterations 80
time step continuity errors : sum local = 5.11655e-12, global = 8.91765e-13, cumulative = -2.29804e-09
DICPCG:  Solving for p, Initial residual = 2.48805e-06, Final residual = 9.54928e-07, No Iterations 1
time step continuity errors : sum local = 5.03102e-12, global = 1.06877e-12, cumulative = -2.29697e-09
smoothSolver:  Solving for epsilon, Initial residual = 1.78425e-05, Final residual = 1.31178e-08, No Iterations 1
smoothSolver:  Solving for k, Initial residual = 9.3396e-05, Final residual = 5.988e-08, No Iterations 1
ExecutionTime = 2642.97 s  ClockTime = 2674 s

Time = 68.725

Courant Number mean: 0.0372241 max: 0.293317
smoothSolver:  Solving for Ux, Initial residual = 0.00010884, Final residual = 3.62413e-08, No Iterations 1
smoothSolver:  Solving for Uy, Initial residual = 0.00010884, Final residual = 3.62404e-08, No Iterations 1
smoothSolver:  Solving for Uz, Initial residual = 8.08286e-05, Final residual = 3.26512e-08, No Iterations 1
DICPCG:  Solving for p, Initial residual = 7.14384e-06, Final residual = 9.325e-07, No Iterations 330
time step continuity errors : sum local = 4.91287e-12, global = 9.00654e-14, cumulative = -2.29688e-09
DICPCG:  Solving for p, Initial residual = 2.45372e-06, Final residual = 8.70136e-07, No Iterations 1
time step continuity errors : sum local = 4.58193e-12, global = 2.06855e-13, cumulative = -2.29668e-09
smoothSolver:  Solving for epsilon, Initial residual = 1.78368e-05, Final residual = 1.31155e-08, No Iterations 1
smoothSolver:  Solving for k, Initial residual = 9.33581e-05, Final residual = 5.98625e-08, No Iterations 1
ExecutionTime = 2644.14 s  ClockTime = 2675 s

Time = 68.75

Courant Number mean: 0.0372239 max: 0.293317
smoothSolver:  Solving for Ux, Initial residual = 0.000108525, Final residual = 3.60648e-08, No Iterations 1
smoothSolver:  Solving for Uy, Initial residual = 0.000108517, Final residual = 3.6072e-08, No Iterations 1
smoothSolver:  Solving for Uz, Initial residual = 8.07878e-05, Final residual = 3.2638e-08, No Iterations 1
DICPCG:  Solving for p, Initial residual = 6.86188e-06, Final residual = 9.8918e-07, No Iterations 9
time step continuity errors : sum local = 5.20879e-12, global = -9.22017e-13, cumulative = -2.2976e-09
DICPCG:  Solving for p, Initial residual = 2.40938e-06, Final residual = 9.90806e-07, No Iterations 1
time step continuity errors : sum local = 5.21736e-12, global = -7.63841e-13, cumulative = -2.29836e-09
smoothSolver:  Solving for epsilon, Initial residual = 1.78312e-05, Final residual = 1.3114e-08, No Iterations 1
smoothSolver:  Solving for k, Initial residual = 9.33202e-05, Final residual = 5.98343e-08, No Iterations 1
ExecutionTime = 2644.5 s  ClockTime = 2675 s

Time = 68.775

Courant Number mean: 0.0372238 max: 0.293317
smoothSolver:  Solving for Ux, Initial residual = 0.000108491, Final residual = 3.60608e-08, No Iterations 1
smoothSolver:  Solving for Uy, Initial residual = 0.000108476, Final residual = 3.60591e-08, No Iterations 1
smoothSolver:  Solving for Uz, Initial residual = 8.07519e-05, Final residual = 3.26244e-08, No Iterations 1
DICPCG:  Solving for p, Initial residual = 7.37684e-06, Final residual = 9.58911e-07, No Iterations 440
time step continuity errors : sum local = 5.04941e-12, global = 7.01005e-14, cumulative = -2.29829e-09
DICPCG:  Solving for p, Initial residual = 2.48279e-06, Final residual = 8.84884e-07, No Iterations 1
time step continuity errors : sum local = 4.6627e-12, global = 3.03833e-13, cumulative = -2.29799e-09
smoothSolver:  Solving for epsilon, Initial residual = 1.78255e-05, Final residual = 1.311e-08, No Iterations 1
smoothSolver:  Solving for k, Initial residual = 9.32824e-05, Final residual = 5.98333e-08, No Iterations 1
ExecutionTime = 2645.94 s  ClockTime = 2677 s

Time = 68.8

Courant Number mean: 0.0372236 max: 0.293317
smoothSolver:  Solving for Ux, Initial residual = 0.000108793, Final residual = 3.62124e-08, No Iterations 1
smoothSolver:  Solving for Uy, Initial residual = 0.000108777, Final residual = 3.62163e-08, No Iterations 1
smoothSolver:  Solving for Uz, Initial residual = 8.07226e-05, Final residual = 3.26101e-08, No Iterations 1
DICPCG:  Solving for p, Initial residual = 6.81285e-06, Final residual = 9.62334e-07, No Iterations 6
time step continuity errors : sum local = 5.07081e-12, global = 1.07588e-12, cumulative = -2.29691e-09
DICPCG:  Solving for p, Initial residual = 2.42964e-06, Final residual = 8.77412e-07, No Iterations 2
time step continuity errors : sum local = 4.62334e-12, global = 1.13446e-12, cumulative = -2.29578e-09
smoothSolver:  Solving for epsilon, Initial residual = 1.78198e-05, Final residual = 1.31083e-08, No Iterations 1
smoothSolver:  Solving for k, Initial residual = 9.32445e-05, Final residual = 5.98083e-08, No Iterations 1
ExecutionTime = 2646.3 s  ClockTime = 2677 s

Time = 68.825

Courant Number mean: 0.0372234 max: 0.293317
smoothSolver:  Solving for Ux, Initial residual = 0.000108759, Final residual = 3.62096e-08, No Iterations 1
smoothSolver:  Solving for Uy, Initial residual = 0.00010874, Final residual = 3.62056e-08, No Iterations 1
smoothSolver:  Solving for Uz, Initial residual = 8.06867e-05, Final residual = 3.25968e-08, No Iterations 1
DICPCG:  Solving for p, Initial residual = 7.62381e-06, Final residual = 9.2972e-07, No Iterations 418
time step continuity errors : sum local = 4.89897e-12, global = 9.29664e-14, cumulative = -2.29568e-09
DICPCG:  Solving for p, Initial residual = 2.464e-06, Final residual = 8.7789e-07, No Iterations 1
time step continuity errors : sum local = 4.62233e-12, global = 1.8261e-13, cumulative = -2.2955e-09
smoothSolver:  Solving for epsilon, Initial residual = 1.78142e-05, Final residual = 1.31082e-08, No Iterations 1
smoothSolver:  Solving for k, Initial residual = 9.32066e-05, Final residual = 5.97725e-08, No Iterations 1
ExecutionTime = 2647.78 s  ClockTime = 2678 s

Time = 68.85

Courant Number mean: 0.0372233 max: 0.293317
smoothSolver:  Solving for Ux, Initial residual = 0.000108303, Final residual = 3.59514e-08, No Iterations 1
smoothSolver:  Solving for Uy, Initial residual = 0.0001083, Final residual = 3.59616e-08, No Iterations 1
smoothSolver:  Solving for Uz, Initial residual = 8.06441e-05, Final residual = 3.25831e-08, No Iterations 1
DICPCG:  Solving for p, Initial residual = 6.99056e-06, Final residual = 9.98243e-07, No Iterations 95
time step continuity errors : sum local = 5.25603e-12, global = -8.69881e-13, cumulative = -2.29637e-09
DICPCG:  Solving for p, Initial residual = 2.48973e-06, Final residual = 9.59842e-07, No Iterations 1
time step continuity errors : sum local = 5.05391e-12, global = -6.98093e-13, cumulative = -2.29707e-09
smoothSolver:  Solving for epsilon, Initial residual = 1.78085e-05, Final residual = 1.31055e-08, No Iterations 1
smoothSolver:  Solving for k, Initial residual = 9.31687e-05, Final residual = 5.97611e-08, No Iterations 1
ExecutionTime = 2648.39 s  ClockTime = 2679 s

Time = 68.875

Courant Number mean: 0.0372231 max: 0.293317
smoothSolver:  Solving for Ux, Initial residual = 0.000108272, Final residual = 3.59497e-08, No Iterations 1
smoothSolver:  Solving for Uy, Initial residual = 0.000108257, Final residual = 3.59542e-08, No Iterations 1
smoothSolver:  Solving for Uz, Initial residual = 8.06084e-05, Final residual = 3.25703e-08, No Iterations 1
DICPCG:  Solving for p, Initial residual = 7.06373e-06, Final residual = 8.86966e-07, No Iterations 414
time step continuity errors : sum local = 4.67019e-12, global = 3.04967e-14, cumulative = -2.29704e-09
DICPCG:  Solving for p, Initial residual = 2.41923e-06, Final residual = 8.45879e-07, No Iterations 1
time step continuity errors : sum local = 4.45658e-12, global = 2.59067e-13, cumulative = -2.29678e-09
smoothSolver:  Solving for epsilon, Initial residual = 1.78029e-05, Final residual = 1.31051e-08, No Iterations 1
smoothSolver:  Solving for k, Initial residual = 9.31308e-05, Final residual = 5.97412e-08, No Iterations 1
ExecutionTime = 2649.83 s  ClockTime = 2680 s

Time = 68.9

Courant Number mean: 0.0372229 max: 0.293317
smoothSolver:  Solving for Ux, Initial residual = 0.000108558, Final residual = 3.60968e-08, No Iterations 1
smoothSolver:  Solving for Uy, Initial residual = 0.000108548, Final residual = 3.6103e-08, No Iterations 1
smoothSolver:  Solving for Uz, Initial residual = 8.05781e-05, Final residual = 3.25557e-08, No Iterations 1
DICPCG:  Solving for p, Initial residual = 7.29906e-06, Final residual = 9.88145e-07, No Iterations 21
time step continuity errors : sum local = 5.20613e-12, global = 8.44351e-13, cumulative = -2.29594e-09
DICPCG:  Solving for p, Initial residual = 2.50168e-06, Final residual = 9.7883e-07, No Iterations 1
time step continuity errors : sum local = 5.15705e-12, global = 1.00715e-12, cumulative = -2.29493e-09
smoothSolver:  Solving for epsilon, Initial residual = 1.77972e-05, Final residual = 1.31005e-08, No Iterations 1
smoothSolver:  Solving for k, Initial residual = 9.30929e-05, Final residual = 5.97266e-08, No Iterations 1
ExecutionTime = 2650.25 s  ClockTime = 2681 s

Time = 68.925

Courant Number mean: 0.0372228 max: 0.293317
smoothSolver:  Solving for Ux, Initial residual = 0.000108493, Final residual = 3.60705e-08, No Iterations 1
smoothSolver:  Solving for Uy, Initial residual = 0.000108509, Final residual = 3.6077e-08, No Iterations 1
smoothSolver:  Solving for Uz, Initial residual = 8.05424e-05, Final residual = 3.25421e-08, No Iterations 1
